@<TRIPOS>MOLECULE
"64_3HB_alfa_30"
23168 23104 192 0 0 
SMALL
USER_CHARGES


@<TRIPOS>ATOM
1 C 92.65 6.45 4.44 C.3 1 C41 0
2 C 93.62 5.61 3.89 C.3 1 C41 0
3 H 92.09 6.78 3.75 H 1 C41 0
4 H 94.21 6.12 3.35 H 1 C41 0
5 H 93.2 4.94 3.36 H 1 C41 0
6 C1 94.42 4.93 5.02 C.3 1 C41 0
7 O2 94.63 3.72 4.99 O.3 1 C41 0
8 O3 94.9 5.67 6.05 O.3 1 C41 0
9 H5 95.42 5.12 6.63 H 1 C41 0
10 C 93.34 7.63 5.15 C.3 1 C41 0
11 H 92.68 8.21 5.52 H 1 C41 0
12 H 93.91 7.31 5.83 H 1 C41 0
13 H 93.86 8.12 4.51 H 1 C41 0
14 C 89.58 5.09 7.13 C.3 2 C42 0
15 C 90.55 5.99 7.59 C.3 2 C42 0
16 H 89.02 4.84 7.85 H 2 C42 0
17 H 91.15 5.54 8.19 H 2 C42 0
18 H 90.13 6.71 8.04 H 2 C42 0
19 C1 91.35 6.53 6.39 C.3 2 C42 0
20 O2 91.56 7.74 6.29 O.3 2 C42 0
21 O3 91.83 5.68 5.45 O.3 2 C42 0
22 C 90.28 3.83 6.57 C.3 2 C42 0
23 H 89.62 3.22 6.26 H 2 C42 0
24 H 90.84 4.08 5.85 H 2 C42 0
25 H 90.79 3.42 7.25 H 2 C42 0
26 C 86.52 6.15 4.31 C.3 2 C42 0
27 C 87.49 5.2 3.95 C.3 2 C42 0
28 H 85.95 6.31 3.56 H 2 C42 0
29 H 88.08 5.58 3.31 H 2 C42 0
30 H 87.06 4.44 3.58 H 2 C42 0
31 C1 88.28 4.79 5.21 C.3 2 C42 0
32 O2 88.49 3.6 5.44 O.3 2 C42 0
33 O3 88.76 5.74 6.05 O.3 2 C42 0
34 C 87.21 7.46 4.73 C.3 2 C42 0
35 H 86.55 8.1 4.97 H 2 C42 0
36 H 87.77 7.29 5.48 H 2 C42 0
37 H 87.73 7.79 4.01 H 2 C42 0
38 C 83.45 5.41 7.23 C.3 2 C42 0
39 C 84.42 6.38 7.48 C.3 2 C42 0
40 H 82.88 5.32 7.99 H 2 C42 0
41 H 85.01 6.08 8.16 H 2 C42 0
42 H 84 7.19 7.77 H 2 C42 0
43 C1 85.22 6.66 6.19 C.3 2 C42 0
44 O2 85.42 7.81 5.83 O.3 2 C42 0
45 O3 85.69 5.62 5.46 O.3 2 C42 0
46 C 84.14 4.06 6.96 C.3 2 C42 0
47 H 83.48 3.39 6.79 H 2 C42 0
48 H 84.71 4.14 6.2 H 2 C42 0
49 H 84.66 3.81 7.71 H 2 C42 0
50 C 80.38 5.82 4.24 C.3 2 C42 0
51 C 81.35 4.82 4.11 C.3 2 C42 0
52 H 79.82 5.82 3.48 H 2 C42 0
53 H 81.94 5.05 3.4 H 2 C42 0
54 H 80.93 3.99 3.91 H 2 C42 0
55 C1 82.15 4.69 5.42 C.3 2 C42 0
56 O2 82.36 3.58 5.91 O.3 2 C42 0
57 O3 82.63 5.81 6.03 O.3 2 C42 0
58 C 81.07 7.19 4.37 C.3 2 C42 0
59 H 80.41 7.87 4.47 H 2 C42 0
60 H 81.64 7.19 5.13 H 2 C42 0
61 H 81.59 7.36 3.59 H 2 C42 0
62 C 77.31 5.74 7.26 C.3 2 C42 0
63 C 78.28 6.75 7.29 C.3 2 C42 0
64 H 76.75 5.82 8.02 H 2 C42 0
65 H 78.88 6.6 8.02 H 2 C42 0
66 H 77.86 7.59 7.39 H 2 C42 0
67 C1 79.08 6.73 5.97 C.3 2 C42 0
68 O2 79.29 7.78 5.36 O.3 2 C42 0
69 O3 79.56 5.55 5.48 O.3 2 C42 0
70 C 78.01 4.36 7.29 C.3 2 C42 0
71 H 77.35 3.68 7.27 H 2 C42 0
72 H 78.57 4.28 6.53 H 2 C42 0
73 H 78.52 4.28 8.08 H 2 C42 0
74 C 74.25 5.49 4.25 C.3 2 C42 0
75 C 75.22 4.48 4.34 C.3 2 C42 0
76 H 73.68 5.32 3.51 H 2 C42 0
77 H 75.81 4.54 3.6 H 2 C42 0
78 H 74.79 3.63 4.33 H 2 C42 0
79 C1 76.01 4.64 5.65 C.3 2 C42 0
80 O2 76.22 3.67 6.37 O.3 2 C42 0
81 O3 76.49 5.87 6 O.3 2 C42 0
82 C 74.94 6.85 4.08 C.3 2 C42 0
83 H 74.28 7.53 4.02 H 2 C42 0
84 H 75.5 7.02 4.82 H 2 C42 0
85 H 75.46 6.84 3.28 H 2 C42 0
86 C 71.18 6.07 7.22 C.3 2 C42 0
87 C 72.15 7.06 7.02 C.3 2 C42 0
88 H 70.61 6.32 7.94 H 2 C42 0
89 H 72.74 7.08 7.76 H 2 C42 0
90 H 71.73 7.91 6.93 H 2 C42 0
91 C1 72.95 6.75 5.74 C.3 2 C42 0
92 O2 73.15 7.64 4.91 O.3 2 C42 0
93 O3 73.42 5.5 5.52 O.3 2 C42 0
94 C 71.87 4.73 7.54 C.3 2 C42 0
95 H 71.21 4.06 7.68 H 2 C42 0
96 H 72.44 4.49 6.82 H 2 C42 0
97 H 72.39 4.83 8.33 H 2 C42 0
98 C 68.11 5.16 4.34 C.3 2 C42 0
99 C 69.08 4.2 4.64 C.3 2 C42 0
100 H 67.55 4.83 3.65 H 2 C42 0
101 H 69.67 4.1 3.9 H 2 C42 0
102 H 68.66 3.37 4.82 H 2 C42 0
103 C1 69.88 4.65 5.88 C.3 2 C42 0
104 O2 70.09 3.86 6.8 O.3 2 C42 0
105 O3 70.36 5.92 5.96 O.3 2 C42 0
106 C 68.8 6.45 3.86 C.3 2 C42 0
107 H 68.14 7.11 3.66 H 2 C42 0
108 H 69.37 6.78 4.55 H 2 C42 0
109 H 69.32 6.27 3.09 H 2 C42 0
110 C 65.04 6.38 7.1 C.3 2 C42 0
111 C 66.01 7.31 6.69 C.3 2 C42 0
112 H 64.48 6.79 7.75 H 2 C42 0
113 H 66.6 7.49 7.41 H 2 C42 0
114 H 65.59 8.11 6.42 H 2 C42 0
115 C1 66.81 6.73 5.51 C.3 2 C42 0
116 O2 67.02 7.41 4.51 O.3 2 C42 0
117 O3 67.29 5.45 5.57 O.3 2 C42 0
118 C 65.74 5.15 7.71 C.3 2 C42 0
119 H 65.08 4.53 7.99 H 2 C42 0
120 H 66.3 4.75 7.06 H 2 C42 0
121 H 66.25 5.42 8.46 H 2 C42 0
122 C 61.98 4.87 4.49 C.3 2 C42 0
123 C 62.95 3.99 5 C.3 2 C42 0
124 H 61.41 4.39 3.89 H 2 C42 0
125 H 63.54 3.73 4.3 H 2 C42 0
126 H 62.52 3.22 5.36 H 2 C42 0
127 C1 63.74 4.7 6.11 C.3 2 C42 0
128 O2 63.95 4.13 7.18 O.3 2 C42 0
129 O3 64.22 5.96 5.91 O.3 2 C42 0
130 C 62.67 6.02 3.74 C.3 2 C42 0
131 H 62.01 6.61 3.4 H 2 C42 0
132 H 63.23 6.49 4.34 H 2 C42 0
133 H 63.19 5.67 3.03 H 2 C42 0
134 C 58.91 6.66 6.91 C.3 2 C42 0
135 C 59.88 7.47 6.31 C.3 2 C42 0
136 H 58.34 7.2 7.46 H 2 C42 0
137 H 60.47 7.81 6.98 H 2 C42 0
138 H 59.46 8.2 5.87 H 2 C42 0
139 C1 60.68 6.65 5.29 C.3 2 C42 0
140 O2 60.88 7.1 4.16 O.3 2 C42 0
141 O3 61.15 5.42 5.63 O.3 2 C42 0
142 C 59.6 5.6 7.78 C.3 2 C42 0
143 H 58.94 5.05 8.19 H 2 C42 0
144 H 60.17 5.06 7.24 H 2 C42 0
145 H 60.12 6.02 8.46 H 2 C42 0
146 C 55.84 4.61 4.7 C.3 2 C42 0
147 C 56.81 3.87 5.39 C.3 2 C42 0
148 H 55.27 4.02 4.22 H 2 C42 0
149 H 57.4 3.46 4.77 H 2 C42 0
150 H 56.39 3.2 5.91 H 2 C42 0
151 C1 57.61 4.8 6.32 C.3 2 C42 0
152 O2 57.81 4.48 7.49 O.3 2 C42 0
153 O3 58.09 5.99 5.84 O.3 2 C42 0
154 C 56.53 5.57 3.72 C.3 2 C42 0
155 H 55.87 6.08 3.26 H 2 C42 0
156 H 57.1 6.16 4.2 H 2 C42 0
157 H 57.05 5.08 3.1 H 2 C42 0
158 C 52.77 6.9 6.67 C.3 2 C42 0
159 C 53.74 7.56 5.91 C.3 2 C42 0
160 H 52.21 7.54 7.09 H 2 C42 0
161 H 54.33 8.03 6.48 H 2 C42 0
162 H 53.32 8.17 5.32 H 2 C42 0
163 C1 54.54 6.52 5.09 C.3 2 C42 0
164 O2 54.75 6.71 3.89 O.3 2 C42 0
165 O3 55.02 5.4 5.69 O.3 2 C42 0
166 C 53.46 6.05 7.76 C.3 2 C42 0
167 H 52.81 5.6 8.27 H 2 C42 0
168 H 54.03 5.41 7.34 H 2 C42 0
169 H 53.98 6.61 8.32 H 2 C42 0
170 C 49.71 4.41 4.97 C.3 2 C42 0
171 C 50.68 3.83 5.8 C.3 2 C42 0
172 H 49.14 3.72 4.63 H 2 C42 0
173 H 51.27 3.3 5.28 H 2 C42 0
174 H 50.25 3.29 6.46 H 2 C42 0
175 C1 51.47 4.95 6.5 C.3 2 C42 0
176 O2 51.68 4.9 7.71 O.3 2 C42 0
177 O3 51.95 6 5.78 O.3 2 C42 0
178 C 50.4 5.13 3.8 C.3 2 C42 0
179 H 49.74 5.52 3.23 H 2 C42 0
180 H 50.96 5.81 4.14 H 2 C42 0
181 H 50.91 4.51 3.3 H 2 C42 0
182 C 46.64 7.07 6.39 C.3 2 C42 0
183 C 47.61 7.55 5.5 C.3 2 C42 0
184 H 46.07 7.79 6.65 H 2 C42 0
185 H 48.2 8.13 5.95 H 2 C42 0
186 H 47.19 8.01 4.79 H 2 C42 0
187 C1 48.41 6.36 4.93 C.3 2 C42 0
188 O2 48.61 6.28 3.72 O.3 2 C42 0
189 O3 48.88 5.39 5.76 O.3 2 C42 0
190 C 47.33 6.48 7.63 C.3 2 C42 0
191 H 46.67 6.16 8.23 H 2 C42 0
192 H 47.9 5.76 7.37 H 2 C42 0
193 H 47.85 7.15 8.05 H 2 C42 0
194 C 43.57 4.27 5.27 C.3 2 C42 0
195 C 44.54 3.89 6.21 C.3 2 C42 0
196 H 43.01 3.52 5.09 H 2 C42 0
197 H 45.13 3.26 5.82 H 2 C42 0
198 H 44.12 3.51 6.97 H 2 C42 0
199 C1 45.34 5.14 6.65 C.3 2 C42 0
200 O2 45.54 5.35 7.84 O.3 2 C42 0
201 O3 45.82 6 5.71 O.3 2 C42 0
202 C 44.26 4.72 3.97 C.3 2 C42 0
203 H 43.6 4.97 3.34 H 2 C42 0
204 H 44.83 5.46 4.15 H 2 C42 0
205 H 44.78 4 3.62 H 2 C42 0
206 C 40.5 7.18 6.07 C.3 2 C42 0
207 C 41.47 7.44 5.1 C.3 2 C42 0
208 H 39.94 7.93 6.17 H 2 C42 0
209 H 42.06 8.12 5.41 H 2 C42 0
210 H 41.05 7.74 4.3 H 2 C42 0
211 C1 42.27 6.16 4.8 C.3 2 C42 0
212 O2 42.48 5.82 3.64 O.3 2 C42 0
213 O3 42.75 5.4 5.83 O.3 2 C42 0
214 C 41.19 6.87 7.41 C.3 2 C42 0
215 H 40.54 6.69 8.07 H 2 C42 0
216 H 41.76 6.12 7.31 H 2 C42 0
217 H 41.71 7.62 7.68 H 2 C42 0
218 C 37.44 4.2 5.6 C.3 2 C42 0
219 C 38.41 4.04 6.6 C.3 2 C42 0
220 H 36.87 3.43 5.59 H 2 C42 0
221 H 39 3.33 6.36 H 2 C42 0
222 H 37.98 3.83 7.42 H 2 C42 0
223 C1 39.2 5.35 6.75 C.3 2 C42 0
224 O2 39.41 5.82 7.87 O.3 2 C42 0
225 O3 39.68 5.99 5.65 O.3 2 C42 0
226 C 38.13 4.35 4.23 C.3 2 C42 0
227 H 37.47 4.46 3.56 H 2 C42 0
228 H 38.69 5.11 4.25 H 2 C42 0
229 H 38.64 3.57 4.05 H 2 C42 0
230 C 34.37 7.21 5.74 C.3 2 C42 0
231 C 35.34 7.26 4.73 C.3 2 C42 0
232 H 33.8 7.97 5.67 H 2 C42 0
233 H 35.93 7.98 4.89 H 2 C42 0
234 H 34.91 7.37 3.89 H 2 C42 0
235 C1 36.14 5.94 4.72 C.3 2 C42 0
236 O2 36.34 5.35 3.66 O.3 2 C42 0
237 O3 36.61 5.43 5.89 O.3 2 C42 0
238 C 35.06 7.21 7.11 C.3 2 C42 0
239 H 34.4 7.18 7.8 H 2 C42 0
240 H 35.62 6.45 7.18 H 2 C42 0
241 H 35.58 8 7.21 H 2 C42 0
242 C 31.3 4.2 5.94 C.3 2 C42 0
243 C 32.27 4.27 6.94 C.3 2 C42 0
244 H 30.73 3.45 6.09 H 2 C42 0
245 H 32.86 3.52 6.86 H 2 C42 0
246 H 31.85 4.24 7.79 H 2 C42 0
247 C1 33.07 5.58 6.8 C.3 2 C42 0
248 O2 33.27 6.28 7.79 O.3 2 C42 0
249 O3 33.54 5.95 5.59 O.3 2 C42 0
250 C 31.99 4.05 4.57 C.3 2 C42 0
251 H 31.33 4 3.88 H 2 C42 0
252 H 32.56 4.8 4.41 H 2 C42 0
253 H 32.51 3.25 4.56 H 2 C42 0
254 C 28.23 7.17 5.41 C.3 2 C42 0
255 C 29.2 7 4.41 C.3 2 C42 0
256 H 27.67 7.9 5.17 H 2 C42 0
257 H 29.79 7.74 4.41 H 2 C42 0
258 H 28.78 6.92 3.57 H 2 C42 0
259 C1 30 5.71 4.7 C.3 2 C42 0
260 O2 30.21 4.9 3.79 O.3 2 C42 0
261 O3 30.48 5.47 5.95 O.3 2 C42 0
262 C 28.92 7.47 6.75 C.3 2 C42 0
263 H 28.27 7.59 7.42 H 2 C42 0
264 H 29.49 6.75 6.98 H 2 C42 0
265 H 29.44 8.27 6.67 H 2 C42 0
266 C 25.17 4.28 6.26 C.3 2 C42 0
267 C 26.14 4.56 7.23 C.3 2 C42 0
268 H 24.6 3.58 6.58 H 2 C42 0
269 H 26.73 3.82 7.31 H 2 C42 0
270 H 25.71 4.73 8.06 H 2 C42 0
271 C1 26.93 5.81 6.8 C.3 2 C42 0
272 O2 27.14 6.71 7.61 O.3 2 C42 0
273 O3 27.41 5.91 5.54 O.3 2 C42 0
274 C 25.86 3.83 4.96 C.3 2 C42 0
275 H 25.2 3.64 4.3 H 2 C42 0
276 H 26.42 4.52 4.65 H 2 C42 0
277 H 26.37 3.05 5.13 H 2 C42 0
278 C 22.1 7.06 5.09 C.3 2 C42 0
279 C 23.07 6.67 4.16 C.3 2 C42 0
280 H 21.53 7.72 4.7 H 2 C42 0
281 H 23.66 7.39 3.99 H 2 C42 0
282 H 22.64 6.41 3.35 H 2 C42 0
283 C1 23.87 5.48 4.72 C.3 2 C42 0
284 O2 24.07 4.49 4.02 O.3 2 C42 0
285 O3 24.34 5.51 5.99 O.3 2 C42 0
286 C 22.79 7.65 6.34 C.3 2 C42 0
287 H 22.13 7.92 6.97 H 2 C42 0
288 H 23.35 6.99 6.72 H 2 C42 0
289 H 23.31 8.41 6.08 H 2 C42 0
290 C 19.03 4.42 6.56 C.3 2 C42 0
291 C 20 4.92 7.44 C.3 2 C42 0
292 H 18.46 3.82 7.02 H 2 C42 0
293 H 20.59 4.21 7.69 H 2 C42 0
294 H 19.58 5.26 8.22 H 2 C42 0
295 C1 20.8 6.04 6.75 C.3 2 C42 0
296 O2 21 7.1 7.35 O.3 2 C42 0
297 O3 21.27 5.86 5.49 O.3 2 C42 0
298 C 19.72 3.7 5.39 C.3 2 C42 0
299 H 19.06 3.37 4.79 H 2 C42 0
300 H 20.29 4.31 4.93 H 2 C42 0
301 H 20.24 2.98 5.73 H 2 C42 0
302 C 15.96 6.88 4.81 C.3 2 C42 0
303 C 16.93 6.3 3.99 C.3 2 C42 0
304 H 15.4 7.44 4.29 H 2 C42 0
305 H 17.52 6.97 3.67 H 2 C42 0
306 H 16.51 5.87 3.25 H 2 C42 0
307 C1 17.73 5.26 4.8 C.3 2 C42 0
308 O2 17.94 4.14 4.33 O.3 2 C42 0
309 O3 18.21 5.57 6.03 O.3 2 C42 0
310 C 16.65 7.73 5.89 C.3 2 C42 0
311 H 16 8.13 6.45 H 2 C42 0
312 H 17.22 7.18 6.42 H 2 C42 0
313 H 17.17 8.41 5.48 H 2 C42 0
314 C 12.89 4.63 6.82 C.3 2 C42 0
315 C 13.87 5.31 7.58 C.3 2 C42 0
316 H 12.33 4.14 7.4 H 2 C42 0
317 H 14.45 4.68 7.97 H 2 C42 0
318 H 13.44 5.81 8.26 H 2 C42 0
319 C1 14.66 6.25 6.66 C.3 2 C42 0
320 O2 14.87 7.42 7 O.3 2 C42 0
321 O3 15.14 5.8 5.47 O.3 2 C42 0
322 C 13.59 3.67 5.84 C.3 2 C42 0
323 H 12.93 3.21 5.33 H 2 C42 0
324 H 14.15 4.16 5.26 H 2 C42 0
325 H 14.1 3.04 6.33 H 2 C42 0
326 C 9.83 6.65 4.57 C.3 2 C42 0
327 C 10.8 5.89 3.9 C.3 2 C42 0
328 H 9.26 7.07 3.94 H 2 C42 0
329 H 11.39 6.48 3.44 H 2 C42 0
330 H 10.37 5.31 3.28 H 2 C42 0
331 C1 11.59 5.06 4.92 C.3 2 C42 0
332 O2 11.8 3.86 4.7 O.3 2 C42 0
333 O3 12.07 5.64 6.05 O.3 2 C42 0
334 C 10.52 7.71 5.44 C.3 2 C42 0
335 H 9.86 8.22 5.9 H 2 C42 0
336 H 11.08 7.29 6.08 H 2 C42 0
337 H 11.04 8.29 4.89 H 2 C42 0
338 C 6.76 4.9 7.03 C.3 2 C42 0
339 C 7.73 5.72 7.62 C.3 2 C42 0
340 H 6.19 4.54 7.71 H 2 C42 0
341 H 8.32 5.19 8.14 H 2 C42 0
342 H 7.31 6.36 8.17 H 2 C42 0
343 C1 8.53 6.44 6.51 C.3 2 C42 0
344 O2 8.73 7.65 6.59 O.3 2 C42 0
345 O3 9 5.74 5.45 O.3 2 C42 0
346 C 7.45 3.74 6.28 C.3 2 C42 0
347 H 6.79 3.18 5.89 H 2 C42 0
348 H 8.02 4.09 5.61 H 2 C42 0
349 H 7.97 3.23 6.9 H 2 C42 0
350 H 3.17 5.93 5.06 H 3 C43 0
351 C 3.69 6.36 4.39 C.3 3 C43 0
352 C 4.66 5.48 3.9 C.3 3 C43 0
353 H 3.13 6.64 3.68 H 3 C43 0
354 H 5.25 5.95 3.33 H 3 C43 0
355 H 4.24 4.78 3.42 H 3 C43 0
356 C1 5.46 4.89 5.08 C.3 3 C43 0
357 O2 5.67 3.68 5.14 O.3 3 C43 0
358 O3 5.94 5.7 6.06 O.3 3 C43 0
359 C 4.38 7.6 5.01 C.3 3 C43 0
360 H 3.72 8.19 5.34 H 3 C43 0
361 H 4.95 7.32 5.72 H 3 C43 0
362 H 4.9 8.03 4.34 H 3 C43 0
363 C 92.65 6.45 15.87 C.3 4 C44 0
364 C 93.62 5.61 15.32 C.3 4 C44 0
365 H 92.09 6.78 15.18 H 4 C44 0
366 H 94.21 6.12 14.78 H 4 C44 0
367 H 93.2 4.94 14.79 H 4 C44 0
368 C1 94.42 4.93 16.45 C.3 4 C44 0
369 O2 94.63 3.72 16.42 O.3 4 C44 0
370 O3 94.9 5.67 17.48 O.3 4 C44 0
371 H5 95.42 5.12 18.06 H 4 C44 0
372 C 93.34 7.63 16.58 C.3 4 C44 0
373 H 92.68 8.21 16.95 H 4 C44 0
374 H 93.91 7.31 17.26 H 4 C44 0
375 H 93.86 8.12 15.94 H 4 C44 0
376 C 89.58 5.09 18.56 C.3 5 C45 0
377 C 90.55 5.99 19.02 C.3 5 C45 0
378 H 89.02 4.84 19.28 H 5 C45 0
379 H 91.15 5.54 19.62 H 5 C45 0
380 H 90.13 6.71 19.47 H 5 C45 0
381 C1 91.35 6.53 17.82 C.3 5 C45 0
382 O2 91.56 7.74 17.72 O.3 5 C45 0
383 O3 91.83 5.68 16.88 O.3 5 C45 0
384 C 90.28 3.83 18 C.3 5 C45 0
385 H 89.62 3.22 17.69 H 5 C45 0
386 H 90.84 4.08 17.28 H 5 C45 0
387 H 90.79 3.42 18.68 H 5 C45 0
388 C 86.52 6.15 15.74 C.3 5 C45 0
389 C 87.49 5.2 15.38 C.3 5 C45 0
390 H 85.95 6.31 14.99 H 5 C45 0
391 H 88.08 5.58 14.74 H 5 C45 0
392 H 87.06 4.44 15.01 H 5 C45 0
393 C1 88.28 4.79 16.64 C.3 5 C45 0
394 O2 88.49 3.6 16.87 O.3 5 C45 0
395 O3 88.76 5.74 17.48 O.3 5 C45 0
396 C 87.21 7.46 16.16 C.3 5 C45 0
397 H 86.55 8.1 16.4 H 5 C45 0
398 H 87.77 7.29 16.91 H 5 C45 0
399 H 87.73 7.79 15.44 H 5 C45 0
400 C 83.45 5.41 18.66 C.3 5 C45 0
401 C 84.42 6.38 18.91 C.3 5 C45 0
402 H 82.88 5.32 19.42 H 5 C45 0
403 H 85.01 6.08 19.59 H 5 C45 0
404 H 84 7.19 19.2 H 5 C45 0
405 C1 85.22 6.66 17.62 C.3 5 C45 0
406 O2 85.42 7.81 17.26 O.3 5 C45 0
407 O3 85.69 5.62 16.89 O.3 5 C45 0
408 C 84.14 4.06 18.39 C.3 5 C45 0
409 H 83.48 3.39 18.22 H 5 C45 0
410 H 84.71 4.14 17.63 H 5 C45 0
411 H 84.66 3.81 19.14 H 5 C45 0
412 C 80.38 5.82 15.67 C.3 5 C45 0
413 C 81.35 4.82 15.54 C.3 5 C45 0
414 H 79.82 5.82 14.91 H 5 C45 0
415 H 81.94 5.05 14.83 H 5 C45 0
416 H 80.93 3.99 15.34 H 5 C45 0
417 C1 82.15 4.69 16.85 C.3 5 C45 0
418 O2 82.36 3.58 17.34 O.3 5 C45 0
419 O3 82.63 5.81 17.46 O.3 5 C45 0
420 C 81.07 7.19 15.8 C.3 5 C45 0
421 H 80.41 7.87 15.9 H 5 C45 0
422 H 81.64 7.19 16.56 H 5 C45 0
423 H 81.59 7.36 15.02 H 5 C45 0
424 C 77.31 5.74 18.69 C.3 5 C45 0
425 C 78.28 6.75 18.72 C.3 5 C45 0
426 H 76.75 5.82 19.45 H 5 C45 0
427 H 78.88 6.6 19.45 H 5 C45 0
428 H 77.86 7.59 18.82 H 5 C45 0
429 C1 79.08 6.73 17.4 C.3 5 C45 0
430 O2 79.29 7.78 16.79 O.3 5 C45 0
431 O3 79.56 5.55 16.91 O.3 5 C45 0
432 C 78.01 4.36 18.72 C.3 5 C45 0
433 H 77.35 3.68 18.7 H 5 C45 0
434 H 78.57 4.28 17.96 H 5 C45 0
435 H 78.52 4.28 19.51 H 5 C45 0
436 C 74.25 5.49 15.68 C.3 5 C45 0
437 C 75.22 4.48 15.77 C.3 5 C45 0
438 H 73.68 5.32 14.94 H 5 C45 0
439 H 75.81 4.54 15.03 H 5 C45 0
440 H 74.79 3.63 15.76 H 5 C45 0
441 C1 76.01 4.64 17.08 C.3 5 C45 0
442 O2 76.22 3.67 17.8 O.3 5 C45 0
443 O3 76.49 5.87 17.43 O.3 5 C45 0
444 C 74.94 6.85 15.51 C.3 5 C45 0
445 H 74.28 7.53 15.45 H 5 C45 0
446 H 75.5 7.02 16.25 H 5 C45 0
447 H 75.46 6.84 14.71 H 5 C45 0
448 C 71.18 6.07 18.65 C.3 5 C45 0
449 C 72.15 7.06 18.45 C.3 5 C45 0
450 H 70.61 6.32 19.37 H 5 C45 0
451 H 72.74 7.08 19.19 H 5 C45 0
452 H 71.73 7.91 18.36 H 5 C45 0
453 C1 72.95 6.75 17.17 C.3 5 C45 0
454 O2 73.15 7.64 16.34 O.3 5 C45 0
455 O3 73.42 5.5 16.95 O.3 5 C45 0
456 C 71.87 4.73 18.97 C.3 5 C45 0
457 H 71.21 4.06 19.11 H 5 C45 0
458 H 72.44 4.49 18.25 H 5 C45 0
459 H 72.39 4.83 19.76 H 5 C45 0
460 C 68.11 5.16 15.77 C.3 5 C45 0
461 C 69.08 4.2 16.07 C.3 5 C45 0
462 H 67.55 4.83 15.08 H 5 C45 0
463 H 69.67 4.1 15.33 H 5 C45 0
464 H 68.66 3.37 16.25 H 5 C45 0
465 C1 69.88 4.65 17.31 C.3 5 C45 0
466 O2 70.09 3.86 18.23 O.3 5 C45 0
467 O3 70.36 5.92 17.39 O.3 5 C45 0
468 C 68.8 6.45 15.29 C.3 5 C45 0
469 H 68.14 7.11 15.09 H 5 C45 0
470 H 69.37 6.78 15.98 H 5 C45 0
471 H 69.32 6.27 14.52 H 5 C45 0
472 C 65.04 6.38 18.53 C.3 5 C45 0
473 C 66.01 7.31 18.12 C.3 5 C45 0
474 H 64.48 6.79 19.18 H 5 C45 0
475 H 66.6 7.49 18.84 H 5 C45 0
476 H 65.59 8.11 17.85 H 5 C45 0
477 C1 66.81 6.73 16.94 C.3 5 C45 0
478 O2 67.02 7.41 15.94 O.3 5 C45 0
479 O3 67.29 5.45 17 O.3 5 C45 0
480 C 65.74 5.15 19.14 C.3 5 C45 0
481 H 65.08 4.53 19.42 H 5 C45 0
482 H 66.3 4.75 18.49 H 5 C45 0
483 H 66.25 5.42 19.89 H 5 C45 0
484 C 61.98 4.87 15.92 C.3 5 C45 0
485 C 62.95 3.99 16.43 C.3 5 C45 0
486 H 61.41 4.39 15.32 H 5 C45 0
487 H 63.54 3.73 15.73 H 5 C45 0
488 H 62.52 3.22 16.79 H 5 C45 0
489 C1 63.74 4.7 17.54 C.3 5 C45 0
490 O2 63.95 4.13 18.61 O.3 5 C45 0
491 O3 64.22 5.96 17.34 O.3 5 C45 0
492 C 62.67 6.02 15.17 C.3 5 C45 0
493 H 62.01 6.61 14.83 H 5 C45 0
494 H 63.23 6.49 15.77 H 5 C45 0
495 H 63.19 5.67 14.46 H 5 C45 0
496 C 58.91 6.66 18.34 C.3 5 C45 0
497 C 59.88 7.47 17.74 C.3 5 C45 0
498 H 58.34 7.2 18.89 H 5 C45 0
499 H 60.47 7.81 18.41 H 5 C45 0
500 H 59.46 8.2 17.3 H 5 C45 0
501 C1 60.68 6.65 16.72 C.3 5 C45 0
502 O2 60.88 7.1 15.59 O.3 5 C45 0
503 O3 61.15 5.42 17.06 O.3 5 C45 0
504 C 59.6 5.6 19.21 C.3 5 C45 0
505 H 58.94 5.05 19.62 H 5 C45 0
506 H 60.17 5.06 18.67 H 5 C45 0
507 H 60.12 6.02 19.89 H 5 C45 0
508 C 55.84 4.61 16.13 C.3 5 C45 0
509 C 56.81 3.87 16.82 C.3 5 C45 0
510 H 55.27 4.02 15.65 H 5 C45 0
511 H 57.4 3.46 16.2 H 5 C45 0
512 H 56.39 3.2 17.34 H 5 C45 0
513 C1 57.61 4.8 17.75 C.3 5 C45 0
514 O2 57.81 4.48 18.92 O.3 5 C45 0
515 O3 58.09 5.99 17.27 O.3 5 C45 0
516 C 56.53 5.57 15.15 C.3 5 C45 0
517 H 55.87 6.08 14.69 H 5 C45 0
518 H 57.1 6.16 15.63 H 5 C45 0
519 H 57.05 5.08 14.53 H 5 C45 0
520 C 52.77 6.9 18.1 C.3 5 C45 0
521 C 53.74 7.56 17.34 C.3 5 C45 0
522 H 52.21 7.54 18.52 H 5 C45 0
523 H 54.33 8.03 17.91 H 5 C45 0
524 H 53.32 8.17 16.75 H 5 C45 0
525 C1 54.54 6.52 16.52 C.3 5 C45 0
526 O2 54.75 6.71 15.32 O.3 5 C45 0
527 O3 55.02 5.4 17.12 O.3 5 C45 0
528 C 53.46 6.05 19.19 C.3 5 C45 0
529 H 52.81 5.6 19.7 H 5 C45 0
530 H 54.03 5.41 18.77 H 5 C45 0
531 H 53.98 6.61 19.75 H 5 C45 0
532 C 49.71 4.41 16.4 C.3 5 C45 0
533 C 50.68 3.83 17.23 C.3 5 C45 0
534 H 49.14 3.72 16.06 H 5 C45 0
535 H 51.27 3.3 16.71 H 5 C45 0
536 H 50.25 3.29 17.89 H 5 C45 0
537 C1 51.47 4.95 17.93 C.3 5 C45 0
538 O2 51.68 4.9 19.14 O.3 5 C45 0
539 O3 51.95 6 17.21 O.3 5 C45 0
540 C 50.4 5.13 15.23 C.3 5 C45 0
541 H 49.74 5.52 14.66 H 5 C45 0
542 H 50.96 5.81 15.57 H 5 C45 0
543 H 50.91 4.51 14.73 H 5 C45 0
544 C 46.64 7.07 17.82 C.3 5 C45 0
545 C 47.61 7.55 16.93 C.3 5 C45 0
546 H 46.07 7.79 18.08 H 5 C45 0
547 H 48.2 8.13 17.38 H 5 C45 0
548 H 47.19 8.01 16.22 H 5 C45 0
549 C1 48.41 6.36 16.36 C.3 5 C45 0
550 O2 48.61 6.28 15.15 O.3 5 C45 0
551 O3 48.88 5.39 17.19 O.3 5 C45 0
552 C 47.33 6.48 19.06 C.3 5 C45 0
553 H 46.67 6.16 19.66 H 5 C45 0
554 H 47.9 5.76 18.8 H 5 C45 0
555 H 47.85 7.15 19.48 H 5 C45 0
556 C 43.57 4.27 16.7 C.3 5 C45 0
557 C 44.54 3.89 17.64 C.3 5 C45 0
558 H 43.01 3.52 16.52 H 5 C45 0
559 H 45.13 3.26 17.25 H 5 C45 0
560 H 44.12 3.51 18.4 H 5 C45 0
561 C1 45.34 5.14 18.08 C.3 5 C45 0
562 O2 45.54 5.35 19.27 O.3 5 C45 0
563 O3 45.82 6 17.14 O.3 5 C45 0
564 C 44.26 4.72 15.4 C.3 5 C45 0
565 H 43.6 4.97 14.77 H 5 C45 0
566 H 44.83 5.46 15.58 H 5 C45 0
567 H 44.78 4 15.05 H 5 C45 0
568 C 40.5 7.18 17.5 C.3 5 C45 0
569 C 41.47 7.44 16.53 C.3 5 C45 0
570 H 39.94 7.93 17.6 H 5 C45 0
571 H 42.06 8.12 16.84 H 5 C45 0
572 H 41.05 7.74 15.73 H 5 C45 0
573 C1 42.27 6.16 16.23 C.3 5 C45 0
574 O2 42.48 5.82 15.07 O.3 5 C45 0
575 O3 42.75 5.4 17.26 O.3 5 C45 0
576 C 41.19 6.87 18.84 C.3 5 C45 0
577 H 40.54 6.69 19.5 H 5 C45 0
578 H 41.76 6.12 18.74 H 5 C45 0
579 H 41.71 7.62 19.11 H 5 C45 0
580 C 37.44 4.2 17.03 C.3 5 C45 0
581 C 38.41 4.04 18.03 C.3 5 C45 0
582 H 36.87 3.43 17.02 H 5 C45 0
583 H 39 3.33 17.79 H 5 C45 0
584 H 37.98 3.83 18.85 H 5 C45 0
585 C1 39.2 5.35 18.18 C.3 5 C45 0
586 O2 39.41 5.82 19.3 O.3 5 C45 0
587 O3 39.68 5.99 17.08 O.3 5 C45 0
588 C 38.13 4.35 15.66 C.3 5 C45 0
589 H 37.47 4.46 14.99 H 5 C45 0
590 H 38.69 5.11 15.68 H 5 C45 0
591 H 38.64 3.57 15.48 H 5 C45 0
592 C 34.37 7.21 17.17 C.3 5 C45 0
593 C 35.34 7.26 16.16 C.3 5 C45 0
594 H 33.8 7.97 17.1 H 5 C45 0
595 H 35.93 7.98 16.32 H 5 C45 0
596 H 34.91 7.37 15.32 H 5 C45 0
597 C1 36.14 5.94 16.15 C.3 5 C45 0
598 O2 36.34 5.35 15.09 O.3 5 C45 0
599 O3 36.61 5.43 17.32 O.3 5 C45 0
600 C 35.06 7.21 18.54 C.3 5 C45 0
601 H 34.4 7.18 19.23 H 5 C45 0
602 H 35.62 6.45 18.61 H 5 C45 0
603 H 35.58 8 18.64 H 5 C45 0
604 C 31.3 4.2 17.37 C.3 5 C45 0
605 C 32.27 4.27 18.37 C.3 5 C45 0
606 H 30.73 3.45 17.52 H 5 C45 0
607 H 32.86 3.52 18.29 H 5 C45 0
608 H 31.85 4.24 19.22 H 5 C45 0
609 C1 33.07 5.58 18.23 C.3 5 C45 0
610 O2 33.27 6.28 19.22 O.3 5 C45 0
611 O3 33.54 5.95 17.02 O.3 5 C45 0
612 C 31.99 4.05 16 C.3 5 C45 0
613 H 31.33 4 15.31 H 5 C45 0
614 H 32.56 4.8 15.84 H 5 C45 0
615 H 32.51 3.25 15.99 H 5 C45 0
616 C 28.23 7.17 16.84 C.3 5 C45 0
617 C 29.2 7 15.84 C.3 5 C45 0
618 H 27.67 7.9 16.6 H 5 C45 0
619 H 29.79 7.74 15.84 H 5 C45 0
620 H 28.78 6.92 15 H 5 C45 0
621 C1 30 5.71 16.13 C.3 5 C45 0
622 O2 30.21 4.9 15.22 O.3 5 C45 0
623 O3 30.48 5.47 17.38 O.3 5 C45 0
624 C 28.92 7.47 18.18 C.3 5 C45 0
625 H 28.27 7.59 18.85 H 5 C45 0
626 H 29.49 6.75 18.41 H 5 C45 0
627 H 29.44 8.27 18.1 H 5 C45 0
628 C 25.17 4.28 17.69 C.3 5 C45 0
629 C 26.14 4.56 18.66 C.3 5 C45 0
630 H 24.6 3.58 18.01 H 5 C45 0
631 H 26.73 3.82 18.74 H 5 C45 0
632 H 25.71 4.73 19.49 H 5 C45 0
633 C1 26.93 5.81 18.23 C.3 5 C45 0
634 O2 27.14 6.71 19.04 O.3 5 C45 0
635 O3 27.41 5.91 16.97 O.3 5 C45 0
636 C 25.86 3.83 16.39 C.3 5 C45 0
637 H 25.2 3.64 15.73 H 5 C45 0
638 H 26.42 4.52 16.08 H 5 C45 0
639 H 26.37 3.05 16.56 H 5 C45 0
640 C 22.1 7.06 16.52 C.3 5 C45 0
641 C 23.07 6.67 15.59 C.3 5 C45 0
642 H 21.53 7.72 16.13 H 5 C45 0
643 H 23.66 7.39 15.42 H 5 C45 0
644 H 22.64 6.41 14.78 H 5 C45 0
645 C1 23.87 5.48 16.15 C.3 5 C45 0
646 O2 24.07 4.49 15.45 O.3 5 C45 0
647 O3 24.34 5.51 17.42 O.3 5 C45 0
648 C 22.79 7.65 17.77 C.3 5 C45 0
649 H 22.13 7.92 18.4 H 5 C45 0
650 H 23.35 6.99 18.15 H 5 C45 0
651 H 23.31 8.41 17.51 H 5 C45 0
652 C 19.03 4.42 17.99 C.3 5 C45 0
653 C 20 4.92 18.87 C.3 5 C45 0
654 H 18.46 3.82 18.45 H 5 C45 0
655 H 20.59 4.21 19.12 H 5 C45 0
656 H 19.58 5.26 19.65 H 5 C45 0
657 C1 20.8 6.04 18.18 C.3 5 C45 0
658 O2 21 7.1 18.78 O.3 5 C45 0
659 O3 21.27 5.86 16.92 O.3 5 C45 0
660 C 19.72 3.7 16.82 C.3 5 C45 0
661 H 19.06 3.37 16.22 H 5 C45 0
662 H 20.29 4.31 16.36 H 5 C45 0
663 H 20.24 2.98 17.16 H 5 C45 0
664 C 15.96 6.88 16.24 C.3 5 C45 0
665 C 16.93 6.3 15.42 C.3 5 C45 0
666 H 15.4 7.44 15.72 H 5 C45 0
667 H 17.52 6.97 15.1 H 5 C45 0
668 H 16.51 5.87 14.68 H 5 C45 0
669 C1 17.73 5.26 16.23 C.3 5 C45 0
670 O2 17.94 4.14 15.76 O.3 5 C45 0
671 O3 18.21 5.57 17.46 O.3 5 C45 0
672 C 16.65 7.73 17.32 C.3 5 C45 0
673 H 16 8.13 17.88 H 5 C45 0
674 H 17.22 7.18 17.85 H 5 C45 0
675 H 17.17 8.41 16.91 H 5 C45 0
676 C 12.89 4.63 18.25 C.3 5 C45 0
677 C 13.87 5.31 19.01 C.3 5 C45 0
678 H 12.33 4.14 18.83 H 5 C45 0
679 H 14.45 4.68 19.4 H 5 C45 0
680 H 13.44 5.81 19.69 H 5 C45 0
681 C1 14.66 6.25 18.09 C.3 5 C45 0
682 O2 14.87 7.42 18.43 O.3 5 C45 0
683 O3 15.14 5.8 16.9 O.3 5 C45 0
684 C 13.59 3.67 17.27 C.3 5 C45 0
685 H 12.93 3.21 16.76 H 5 C45 0
686 H 14.15 4.16 16.69 H 5 C45 0
687 H 14.1 3.04 17.76 H 5 C45 0
688 C 9.83 6.65 16 C.3 5 C45 0
689 C 10.8 5.89 15.33 C.3 5 C45 0
690 H 9.26 7.07 15.37 H 5 C45 0
691 H 11.39 6.48 14.87 H 5 C45 0
692 H 10.37 5.31 14.71 H 5 C45 0
693 C1 11.59 5.06 16.35 C.3 5 C45 0
694 O2 11.8 3.86 16.13 O.3 5 C45 0
695 O3 12.07 5.64 17.48 O.3 5 C45 0
696 C 10.52 7.71 16.87 C.3 5 C45 0
697 H 9.86 8.22 17.33 H 5 C45 0
698 H 11.08 7.29 17.51 H 5 C45 0
699 H 11.04 8.29 16.32 H 5 C45 0
700 C 6.76 4.9 18.46 C.3 5 C45 0
701 C 7.73 5.72 19.05 C.3 5 C45 0
702 H 6.19 4.54 19.14 H 5 C45 0
703 H 8.32 5.19 19.57 H 5 C45 0
704 H 7.31 6.36 19.6 H 5 C45 0
705 C1 8.53 6.44 17.94 C.3 5 C45 0
706 O2 8.73 7.65 18.02 O.3 5 C45 0
707 O3 9 5.74 16.88 O.3 5 C45 0
708 C 7.45 3.74 17.71 C.3 5 C45 0
709 H 6.79 3.18 17.32 H 5 C45 0
710 H 8.02 4.09 17.04 H 5 C45 0
711 H 7.97 3.23 18.33 H 5 C45 0
712 H 3.17 5.93 16.49 H 6 C46 0
713 C 3.69 6.36 15.82 C.3 6 C46 0
714 C 4.66 5.48 15.33 C.3 6 C46 0
715 H 3.13 6.64 15.11 H 6 C46 0
716 H 5.25 5.95 14.76 H 6 C46 0
717 H 4.24 4.78 14.85 H 6 C46 0
718 C1 5.46 4.89 16.51 C.3 6 C46 0
719 O2 5.67 3.68 16.57 O.3 6 C46 0
720 O3 5.94 5.7 17.49 O.3 6 C46 0
721 C 4.38 7.6 16.44 C.3 6 C46 0
722 H 3.72 8.19 16.77 H 6 C46 0
723 H 4.95 7.32 17.15 H 6 C46 0
724 H 4.9 8.03 15.77 H 6 C46 0
725 C 92.65 6.45 27.3 C.3 7 C47 0
726 C 93.62 5.61 26.75 C.3 7 C47 0
727 H 92.09 6.78 26.61 H 7 C47 0
728 H 94.21 6.12 26.21 H 7 C47 0
729 H 93.2 4.94 26.22 H 7 C47 0
730 C1 94.42 4.93 27.88 C.3 7 C47 0
731 O2 94.63 3.72 27.85 O.3 7 C47 0
732 O3 94.9 5.67 28.91 O.3 7 C47 0
733 H5 95.42 5.12 29.49 H 7 C47 0
734 C 93.34 7.63 28.01 C.3 7 C47 0
735 H 92.68 8.21 28.38 H 7 C47 0
736 H 93.91 7.31 28.69 H 7 C47 0
737 H 93.86 8.12 27.37 H 7 C47 0
738 C 89.58 5.09 29.99 C.3 8 C48 0
739 C 90.55 5.99 30.45 C.3 8 C48 0
740 H 89.02 4.84 30.71 H 8 C48 0
741 H 91.15 5.54 31.05 H 8 C48 0
742 H 90.13 6.71 30.9 H 8 C48 0
743 C1 91.35 6.53 29.25 C.3 8 C48 0
744 O2 91.56 7.74 29.15 O.3 8 C48 0
745 O3 91.83 5.68 28.31 O.3 8 C48 0
746 C 90.28 3.83 29.43 C.3 8 C48 0
747 H 89.62 3.22 29.12 H 8 C48 0
748 H 90.84 4.08 28.71 H 8 C48 0
749 H 90.79 3.42 30.11 H 8 C48 0
750 C 86.52 6.15 27.17 C.3 8 C48 0
751 C 87.49 5.2 26.81 C.3 8 C48 0
752 H 85.95 6.31 26.42 H 8 C48 0
753 H 88.08 5.58 26.17 H 8 C48 0
754 H 87.06 4.44 26.44 H 8 C48 0
755 C1 88.28 4.79 28.07 C.3 8 C48 0
756 O2 88.49 3.6 28.3 O.3 8 C48 0
757 O3 88.76 5.74 28.91 O.3 8 C48 0
758 C 87.21 7.46 27.59 C.3 8 C48 0
759 H 86.55 8.1 27.83 H 8 C48 0
760 H 87.77 7.29 28.34 H 8 C48 0
761 H 87.73 7.79 26.87 H 8 C48 0
762 C 83.45 5.41 30.09 C.3 8 C48 0
763 C 84.42 6.38 30.34 C.3 8 C48 0
764 H 82.88 5.32 30.85 H 8 C48 0
765 H 85.01 6.08 31.02 H 8 C48 0
766 H 84 7.19 30.63 H 8 C48 0
767 C1 85.22 6.66 29.05 C.3 8 C48 0
768 O2 85.42 7.81 28.69 O.3 8 C48 0
769 O3 85.69 5.62 28.32 O.3 8 C48 0
770 C 84.14 4.06 29.82 C.3 8 C48 0
771 H 83.48 3.39 29.65 H 8 C48 0
772 H 84.71 4.14 29.06 H 8 C48 0
773 H 84.66 3.81 30.57 H 8 C48 0
774 C 80.38 5.82 27.1 C.3 8 C48 0
775 C 81.35 4.82 26.97 C.3 8 C48 0
776 H 79.82 5.82 26.34 H 8 C48 0
777 H 81.94 5.05 26.26 H 8 C48 0
778 H 80.93 3.99 26.77 H 8 C48 0
779 C1 82.15 4.69 28.28 C.3 8 C48 0
780 O2 82.36 3.58 28.77 O.3 8 C48 0
781 O3 82.63 5.81 28.89 O.3 8 C48 0
782 C 81.07 7.19 27.23 C.3 8 C48 0
783 H 80.41 7.87 27.33 H 8 C48 0
784 H 81.64 7.19 27.99 H 8 C48 0
785 H 81.59 7.36 26.45 H 8 C48 0
786 C 77.31 5.74 30.12 C.3 8 C48 0
787 C 78.28 6.75 30.15 C.3 8 C48 0
788 H 76.75 5.82 30.88 H 8 C48 0
789 H 78.88 6.6 30.88 H 8 C48 0
790 H 77.86 7.59 30.25 H 8 C48 0
791 C1 79.08 6.73 28.83 C.3 8 C48 0
792 O2 79.29 7.78 28.22 O.3 8 C48 0
793 O3 79.56 5.55 28.34 O.3 8 C48 0
794 C 78.01 4.36 30.15 C.3 8 C48 0
795 H 77.35 3.68 30.13 H 8 C48 0
796 H 78.57 4.28 29.39 H 8 C48 0
797 H 78.52 4.28 30.94 H 8 C48 0
798 C 74.25 5.49 27.11 C.3 8 C48 0
799 C 75.22 4.48 27.2 C.3 8 C48 0
800 H 73.68 5.32 26.37 H 8 C48 0
801 H 75.81 4.54 26.46 H 8 C48 0
802 H 74.79 3.63 27.19 H 8 C48 0
803 C1 76.01 4.64 28.51 C.3 8 C48 0
804 O2 76.22 3.67 29.23 O.3 8 C48 0
805 O3 76.49 5.87 28.86 O.3 8 C48 0
806 C 74.94 6.85 26.94 C.3 8 C48 0
807 H 74.28 7.53 26.88 H 8 C48 0
808 H 75.5 7.02 27.68 H 8 C48 0
809 H 75.46 6.84 26.14 H 8 C48 0
810 C 71.18 6.07 30.08 C.3 8 C48 0
811 C 72.15 7.06 29.88 C.3 8 C48 0
812 H 70.61 6.32 30.8 H 8 C48 0
813 H 72.74 7.08 30.62 H 8 C48 0
814 H 71.73 7.91 29.79 H 8 C48 0
815 C1 72.95 6.75 28.6 C.3 8 C48 0
816 O2 73.15 7.64 27.77 O.3 8 C48 0
817 O3 73.42 5.5 28.38 O.3 8 C48 0
818 C 71.87 4.73 30.4 C.3 8 C48 0
819 H 71.21 4.06 30.54 H 8 C48 0
820 H 72.44 4.49 29.68 H 8 C48 0
821 H 72.39 4.83 31.19 H 8 C48 0
822 C 68.11 5.16 27.2 C.3 8 C48 0
823 C 69.08 4.2 27.5 C.3 8 C48 0
824 H 67.55 4.83 26.51 H 8 C48 0
825 H 69.67 4.1 26.76 H 8 C48 0
826 H 68.66 3.37 27.68 H 8 C48 0
827 C1 69.88 4.65 28.74 C.3 8 C48 0
828 O2 70.09 3.86 29.66 O.3 8 C48 0
829 O3 70.36 5.92 28.82 O.3 8 C48 0
830 C 68.8 6.45 26.72 C.3 8 C48 0
831 H 68.14 7.11 26.52 H 8 C48 0
832 H 69.37 6.78 27.41 H 8 C48 0
833 H 69.32 6.27 25.95 H 8 C48 0
834 C 65.04 6.38 29.96 C.3 8 C48 0
835 C 66.01 7.31 29.55 C.3 8 C48 0
836 H 64.48 6.79 30.61 H 8 C48 0
837 H 66.6 7.49 30.27 H 8 C48 0
838 H 65.59 8.11 29.28 H 8 C48 0
839 C1 66.81 6.73 28.37 C.3 8 C48 0
840 O2 67.02 7.41 27.37 O.3 8 C48 0
841 O3 67.29 5.45 28.43 O.3 8 C48 0
842 C 65.74 5.15 30.57 C.3 8 C48 0
843 H 65.08 4.53 30.85 H 8 C48 0
844 H 66.3 4.75 29.92 H 8 C48 0
845 H 66.25 5.42 31.32 H 8 C48 0
846 C 61.98 4.87 27.35 C.3 8 C48 0
847 C 62.95 3.99 27.86 C.3 8 C48 0
848 H 61.41 4.39 26.75 H 8 C48 0
849 H 63.54 3.73 27.16 H 8 C48 0
850 H 62.52 3.22 28.22 H 8 C48 0
851 C1 63.74 4.7 28.97 C.3 8 C48 0
852 O2 63.95 4.13 30.04 O.3 8 C48 0
853 O3 64.22 5.96 28.77 O.3 8 C48 0
854 C 62.67 6.02 26.6 C.3 8 C48 0
855 H 62.01 6.61 26.26 H 8 C48 0
856 H 63.23 6.49 27.2 H 8 C48 0
857 H 63.19 5.67 25.89 H 8 C48 0
858 C 58.91 6.66 29.77 C.3 8 C48 0
859 C 59.88 7.47 29.17 C.3 8 C48 0
860 H 58.34 7.2 30.32 H 8 C48 0
861 H 60.47 7.81 29.84 H 8 C48 0
862 H 59.46 8.2 28.73 H 8 C48 0
863 C1 60.68 6.65 28.15 C.3 8 C48 0
864 O2 60.88 7.1 27.02 O.3 8 C48 0
865 O3 61.15 5.42 28.49 O.3 8 C48 0
866 C 59.6 5.6 30.64 C.3 8 C48 0
867 H 58.94 5.05 31.05 H 8 C48 0
868 H 60.17 5.06 30.1 H 8 C48 0
869 H 60.12 6.02 31.32 H 8 C48 0
870 C 55.84 4.61 27.56 C.3 8 C48 0
871 C 56.81 3.87 28.25 C.3 8 C48 0
872 H 55.27 4.02 27.08 H 8 C48 0
873 H 57.4 3.46 27.63 H 8 C48 0
874 H 56.39 3.2 28.77 H 8 C48 0
875 C1 57.61 4.8 29.18 C.3 8 C48 0
876 O2 57.81 4.48 30.35 O.3 8 C48 0
877 O3 58.09 5.99 28.7 O.3 8 C48 0
878 C 56.53 5.57 26.58 C.3 8 C48 0
879 H 55.87 6.08 26.12 H 8 C48 0
880 H 57.1 6.16 27.06 H 8 C48 0
881 H 57.05 5.08 25.96 H 8 C48 0
882 C 52.77 6.9 29.53 C.3 8 C48 0
883 C 53.74 7.56 28.77 C.3 8 C48 0
884 H 52.21 7.54 29.95 H 8 C48 0
885 H 54.33 8.03 29.34 H 8 C48 0
886 H 53.32 8.17 28.18 H 8 C48 0
887 C1 54.54 6.52 27.95 C.3 8 C48 0
888 O2 54.75 6.71 26.75 O.3 8 C48 0
889 O3 55.02 5.4 28.55 O.3 8 C48 0
890 C 53.46 6.05 30.62 C.3 8 C48 0
891 H 52.81 5.6 31.13 H 8 C48 0
892 H 54.03 5.41 30.2 H 8 C48 0
893 H 53.98 6.61 31.18 H 8 C48 0
894 C 49.71 4.41 27.83 C.3 8 C48 0
895 C 50.68 3.83 28.66 C.3 8 C48 0
896 H 49.14 3.72 27.49 H 8 C48 0
897 H 51.27 3.3 28.14 H 8 C48 0
898 H 50.25 3.29 29.32 H 8 C48 0
899 C1 51.47 4.95 29.36 C.3 8 C48 0
900 O2 51.68 4.9 30.57 O.3 8 C48 0
901 O3 51.95 6 28.64 O.3 8 C48 0
902 C 50.4 5.13 26.66 C.3 8 C48 0
903 H 49.74 5.52 26.09 H 8 C48 0
904 H 50.96 5.81 27 H 8 C48 0
905 H 50.91 4.51 26.16 H 8 C48 0
906 C 46.64 7.07 29.25 C.3 8 C48 0
907 C 47.61 7.55 28.36 C.3 8 C48 0
908 H 46.07 7.79 29.51 H 8 C48 0
909 H 48.2 8.13 28.81 H 8 C48 0
910 H 47.19 8.01 27.65 H 8 C48 0
911 C1 48.41 6.36 27.79 C.3 8 C48 0
912 O2 48.61 6.28 26.58 O.3 8 C48 0
913 O3 48.88 5.39 28.62 O.3 8 C48 0
914 C 47.33 6.48 30.49 C.3 8 C48 0
915 H 46.67 6.16 31.09 H 8 C48 0
916 H 47.9 5.76 30.23 H 8 C48 0
917 H 47.85 7.15 30.91 H 8 C48 0
918 C 43.57 4.27 28.13 C.3 8 C48 0
919 C 44.54 3.89 29.07 C.3 8 C48 0
920 H 43.01 3.52 27.95 H 8 C48 0
921 H 45.13 3.26 28.68 H 8 C48 0
922 H 44.12 3.51 29.83 H 8 C48 0
923 C1 45.34 5.14 29.51 C.3 8 C48 0
924 O2 45.54 5.35 30.7 O.3 8 C48 0
925 O3 45.82 6 28.57 O.3 8 C48 0
926 C 44.26 4.72 26.83 C.3 8 C48 0
927 H 43.6 4.97 26.2 H 8 C48 0
928 H 44.83 5.46 27.01 H 8 C48 0
929 H 44.78 4 26.48 H 8 C48 0
930 C 40.5 7.18 28.93 C.3 8 C48 0
931 C 41.47 7.44 27.96 C.3 8 C48 0
932 H 39.94 7.93 29.03 H 8 C48 0
933 H 42.06 8.12 28.27 H 8 C48 0
934 H 41.05 7.74 27.16 H 8 C48 0
935 C1 42.27 6.16 27.66 C.3 8 C48 0
936 O2 42.48 5.82 26.5 O.3 8 C48 0
937 O3 42.75 5.4 28.69 O.3 8 C48 0
938 C 41.19 6.87 30.27 C.3 8 C48 0
939 H 40.54 6.69 30.93 H 8 C48 0
940 H 41.76 6.12 30.17 H 8 C48 0
941 H 41.71 7.62 30.54 H 8 C48 0
942 C 37.44 4.2 28.46 C.3 8 C48 0
943 C 38.41 4.04 29.46 C.3 8 C48 0
944 H 36.87 3.43 28.45 H 8 C48 0
945 H 39 3.33 29.22 H 8 C48 0
946 H 37.98 3.83 30.28 H 8 C48 0
947 C1 39.2 5.35 29.61 C.3 8 C48 0
948 O2 39.41 5.82 30.73 O.3 8 C48 0
949 O3 39.68 5.99 28.51 O.3 8 C48 0
950 C 38.13 4.35 27.09 C.3 8 C48 0
951 H 37.47 4.46 26.42 H 8 C48 0
952 H 38.69 5.11 27.11 H 8 C48 0
953 H 38.64 3.57 26.91 H 8 C48 0
954 C 34.37 7.21 28.6 C.3 8 C48 0
955 C 35.34 7.26 27.59 C.3 8 C48 0
956 H 33.8 7.97 28.53 H 8 C48 0
957 H 35.93 7.98 27.75 H 8 C48 0
958 H 34.91 7.37 26.75 H 8 C48 0
959 C1 36.14 5.94 27.58 C.3 8 C48 0
960 O2 36.34 5.35 26.52 O.3 8 C48 0
961 O3 36.61 5.43 28.75 O.3 8 C48 0
962 C 35.06 7.21 29.97 C.3 8 C48 0
963 H 34.4 7.18 30.66 H 8 C48 0
964 H 35.62 6.45 30.04 H 8 C48 0
965 H 35.58 8 30.07 H 8 C48 0
966 C 31.3 4.2 28.8 C.3 8 C48 0
967 C 32.27 4.27 29.8 C.3 8 C48 0
968 H 30.73 3.45 28.95 H 8 C48 0
969 H 32.86 3.52 29.72 H 8 C48 0
970 H 31.85 4.24 30.65 H 8 C48 0
971 C1 33.07 5.58 29.66 C.3 8 C48 0
972 O2 33.27 6.28 30.65 O.3 8 C48 0
973 O3 33.54 5.95 28.45 O.3 8 C48 0
974 C 31.99 4.05 27.43 C.3 8 C48 0
975 H 31.33 4 26.74 H 8 C48 0
976 H 32.56 4.8 27.27 H 8 C48 0
977 H 32.51 3.25 27.42 H 8 C48 0
978 C 28.23 7.17 28.27 C.3 8 C48 0
979 C 29.2 7 27.27 C.3 8 C48 0
980 H 27.67 7.9 28.03 H 8 C48 0
981 H 29.79 7.74 27.27 H 8 C48 0
982 H 28.78 6.92 26.43 H 8 C48 0
983 C1 30 5.71 27.56 C.3 8 C48 0
984 O2 30.21 4.9 26.65 O.3 8 C48 0
985 O3 30.48 5.47 28.81 O.3 8 C48 0
986 C 28.92 7.47 29.61 C.3 8 C48 0
987 H 28.27 7.59 30.28 H 8 C48 0
988 H 29.49 6.75 29.84 H 8 C48 0
989 H 29.44 8.27 29.53 H 8 C48 0
990 C 25.17 4.28 29.12 C.3 8 C48 0
991 C 26.14 4.56 30.09 C.3 8 C48 0
992 H 24.6 3.58 29.44 H 8 C48 0
993 H 26.73 3.82 30.17 H 8 C48 0
994 H 25.71 4.73 30.92 H 8 C48 0
995 C1 26.93 5.81 29.66 C.3 8 C48 0
996 O2 27.14 6.71 30.47 O.3 8 C48 0
997 O3 27.41 5.91 28.4 O.3 8 C48 0
998 C 25.86 3.83 27.82 C.3 8 C48 0
999 H 25.2 3.64 27.16 H 8 C48 0
1000 H 26.42 4.52 27.51 H 8 C48 0
1001 H 26.37 3.05 27.99 H 8 C48 0
1002 C 22.1 7.06 27.95 C.3 8 C48 0
1003 C 23.07 6.67 27.02 C.3 8 C48 0
1004 H 21.53 7.72 27.56 H 8 C48 0
1005 H 23.66 7.39 26.85 H 8 C48 0
1006 H 22.64 6.41 26.21 H 8 C48 0
1007 C1 23.87 5.48 27.58 C.3 8 C48 0
1008 O2 24.07 4.49 26.88 O.3 8 C48 0
1009 O3 24.34 5.51 28.85 O.3 8 C48 0
1010 C 22.79 7.65 29.2 C.3 8 C48 0
1011 H 22.13 7.92 29.83 H 8 C48 0
1012 H 23.35 6.99 29.58 H 8 C48 0
1013 H 23.31 8.41 28.94 H 8 C48 0
1014 C 19.03 4.42 29.42 C.3 8 C48 0
1015 C 20 4.92 30.3 C.3 8 C48 0
1016 H 18.46 3.82 29.88 H 8 C48 0
1017 H 20.59 4.21 30.55 H 8 C48 0
1018 H 19.58 5.26 31.08 H 8 C48 0
1019 C1 20.8 6.04 29.61 C.3 8 C48 0
1020 O2 21 7.1 30.21 O.3 8 C48 0
1021 O3 21.27 5.86 28.35 O.3 8 C48 0
1022 C 19.72 3.7 28.25 C.3 8 C48 0
1023 H 19.06 3.37 27.65 H 8 C48 0
1024 H 20.29 4.31 27.79 H 8 C48 0
1025 H 20.24 2.98 28.59 H 8 C48 0
1026 C 15.96 6.88 27.67 C.3 8 C48 0
1027 C 16.93 6.3 26.85 C.3 8 C48 0
1028 H 15.4 7.44 27.15 H 8 C48 0
1029 H 17.52 6.97 26.53 H 8 C48 0
1030 H 16.51 5.87 26.11 H 8 C48 0
1031 C1 17.73 5.26 27.66 C.3 8 C48 0
1032 O2 17.94 4.14 27.19 O.3 8 C48 0
1033 O3 18.21 5.57 28.89 O.3 8 C48 0
1034 C 16.65 7.73 28.75 C.3 8 C48 0
1035 H 16 8.13 29.31 H 8 C48 0
1036 H 17.22 7.18 29.28 H 8 C48 0
1037 H 17.17 8.41 28.34 H 8 C48 0
1038 C 12.89 4.63 29.68 C.3 8 C48 0
1039 C 13.87 5.31 30.44 C.3 8 C48 0
1040 H 12.33 4.14 30.26 H 8 C48 0
1041 H 14.45 4.68 30.83 H 8 C48 0
1042 H 13.44 5.81 31.12 H 8 C48 0
1043 C1 14.66 6.25 29.52 C.3 8 C48 0
1044 O2 14.87 7.42 29.86 O.3 8 C48 0
1045 O3 15.14 5.8 28.33 O.3 8 C48 0
1046 C 13.59 3.67 28.7 C.3 8 C48 0
1047 H 12.93 3.21 28.19 H 8 C48 0
1048 H 14.15 4.16 28.12 H 8 C48 0
1049 H 14.1 3.04 29.19 H 8 C48 0
1050 C 9.83 6.65 27.43 C.3 8 C48 0
1051 C 10.8 5.89 26.76 C.3 8 C48 0
1052 H 9.26 7.07 26.8 H 8 C48 0
1053 H 11.39 6.48 26.3 H 8 C48 0
1054 H 10.37 5.31 26.14 H 8 C48 0
1055 C1 11.59 5.06 27.78 C.3 8 C48 0
1056 O2 11.8 3.86 27.56 O.3 8 C48 0
1057 O3 12.07 5.64 28.91 O.3 8 C48 0
1058 C 10.52 7.71 28.3 C.3 8 C48 0
1059 H 9.86 8.22 28.76 H 8 C48 0
1060 H 11.08 7.29 28.94 H 8 C48 0
1061 H 11.04 8.29 27.75 H 8 C48 0
1062 C 6.76 4.9 29.89 C.3 8 C48 0
1063 C 7.73 5.72 30.48 C.3 8 C48 0
1064 H 6.19 4.54 30.57 H 8 C48 0
1065 H 8.32 5.19 31 H 8 C48 0
1066 H 7.31 6.36 31.03 H 8 C48 0
1067 C1 8.53 6.44 29.37 C.3 8 C48 0
1068 O2 8.73 7.65 29.45 O.3 8 C48 0
1069 O3 9 5.74 28.31 O.3 8 C48 0
1070 C 7.45 3.74 29.14 C.3 8 C48 0
1071 H 6.79 3.18 28.75 H 8 C48 0
1072 H 8.02 4.09 28.47 H 8 C48 0
1073 H 7.97 3.23 29.76 H 8 C48 0
1074 H 3.17 5.93 27.92 H 9 C49 0
1075 C 3.69 6.36 27.25 C.3 9 C49 0
1076 C 4.66 5.48 26.76 C.3 9 C49 0
1077 H 3.13 6.64 26.54 H 9 C49 0
1078 H 5.25 5.95 26.19 H 9 C49 0
1079 H 4.24 4.78 26.28 H 9 C49 0
1080 C1 5.46 4.89 27.94 C.3 9 C49 0
1081 O2 5.67 3.68 28 O.3 9 C49 0
1082 O3 5.94 5.7 28.92 O.3 9 C49 0
1083 C 4.38 7.6 27.87 C.3 9 C49 0
1084 H 3.72 8.19 28.2 H 9 C49 0
1085 H 4.95 7.32 28.58 H 9 C49 0
1086 H 4.9 8.03 27.2 H 9 C49 0
1087 C 92.65 6.45 38.73 C.3 10 C410 0
1088 C 93.62 5.61 38.18 C.3 10 C410 0
1089 H 92.09 6.78 38.04 H 10 C410 0
1090 H 94.21 6.12 37.64 H 10 C410 0
1091 H 93.2 4.94 37.65 H 10 C410 0
1092 C1 94.42 4.93 39.31 C.3 10 C410 0
1093 O2 94.63 3.72 39.28 O.3 10 C410 0
1094 O3 94.9 5.67 40.34 O.3 10 C410 0
1095 H5 95.42 5.12 40.92 H 10 C410 0
1096 C 93.34 7.63 39.44 C.3 10 C410 0
1097 H 92.68 8.21 39.81 H 10 C410 0
1098 H 93.91 7.31 40.12 H 10 C410 0
1099 H 93.86 8.12 38.8 H 10 C410 0
1100 C 89.58 5.09 41.42 C.3 11 C411 0
1101 C 90.55 5.99 41.88 C.3 11 C411 0
1102 H 89.02 4.84 42.14 H 11 C411 0
1103 H 91.15 5.54 42.48 H 11 C411 0
1104 H 90.13 6.71 42.33 H 11 C411 0
1105 C1 91.35 6.53 40.68 C.3 11 C411 0
1106 O2 91.56 7.74 40.58 O.3 11 C411 0
1107 O3 91.83 5.68 39.74 O.3 11 C411 0
1108 C 90.28 3.83 40.86 C.3 11 C411 0
1109 H 89.62 3.22 40.55 H 11 C411 0
1110 H 90.84 4.08 40.14 H 11 C411 0
1111 H 90.79 3.42 41.54 H 11 C411 0
1112 C 86.52 6.15 38.6 C.3 11 C411 0
1113 C 87.49 5.2 38.24 C.3 11 C411 0
1114 H 85.95 6.31 37.85 H 11 C411 0
1115 H 88.08 5.58 37.6 H 11 C411 0
1116 H 87.06 4.44 37.87 H 11 C411 0
1117 C1 88.28 4.79 39.5 C.3 11 C411 0
1118 O2 88.49 3.6 39.73 O.3 11 C411 0
1119 O3 88.76 5.74 40.34 O.3 11 C411 0
1120 C 87.21 7.46 39.02 C.3 11 C411 0
1121 H 86.55 8.1 39.26 H 11 C411 0
1122 H 87.77 7.29 39.77 H 11 C411 0
1123 H 87.73 7.79 38.3 H 11 C411 0
1124 C 83.45 5.41 41.52 C.3 11 C411 0
1125 C 84.42 6.38 41.77 C.3 11 C411 0
1126 H 82.88 5.32 42.28 H 11 C411 0
1127 H 85.01 6.08 42.45 H 11 C411 0
1128 H 84 7.19 42.06 H 11 C411 0
1129 C1 85.22 6.66 40.48 C.3 11 C411 0
1130 O2 85.42 7.81 40.12 O.3 11 C411 0
1131 O3 85.69 5.62 39.75 O.3 11 C411 0
1132 C 84.14 4.06 41.25 C.3 11 C411 0
1133 H 83.48 3.39 41.08 H 11 C411 0
1134 H 84.71 4.14 40.49 H 11 C411 0
1135 H 84.66 3.81 42 H 11 C411 0
1136 C 80.38 5.82 38.53 C.3 11 C411 0
1137 C 81.35 4.82 38.4 C.3 11 C411 0
1138 H 79.82 5.82 37.77 H 11 C411 0
1139 H 81.94 5.05 37.69 H 11 C411 0
1140 H 80.93 3.99 38.2 H 11 C411 0
1141 C1 82.15 4.69 39.71 C.3 11 C411 0
1142 O2 82.36 3.58 40.2 O.3 11 C411 0
1143 O3 82.63 5.81 40.32 O.3 11 C411 0
1144 C 81.07 7.19 38.66 C.3 11 C411 0
1145 H 80.41 7.87 38.76 H 11 C411 0
1146 H 81.64 7.19 39.42 H 11 C411 0
1147 H 81.59 7.36 37.88 H 11 C411 0
1148 C 77.31 5.74 41.55 C.3 11 C411 0
1149 C 78.28 6.75 41.58 C.3 11 C411 0
1150 H 76.75 5.82 42.31 H 11 C411 0
1151 H 78.88 6.6 42.31 H 11 C411 0
1152 H 77.86 7.59 41.68 H 11 C411 0
1153 C1 79.08 6.73 40.26 C.3 11 C411 0
1154 O2 79.29 7.78 39.65 O.3 11 C411 0
1155 O3 79.56 5.55 39.77 O.3 11 C411 0
1156 C 78.01 4.36 41.58 C.3 11 C411 0
1157 H 77.35 3.68 41.56 H 11 C411 0
1158 H 78.57 4.28 40.82 H 11 C411 0
1159 H 78.52 4.28 42.37 H 11 C411 0
1160 C 74.25 5.49 38.54 C.3 11 C411 0
1161 C 75.22 4.48 38.63 C.3 11 C411 0
1162 H 73.68 5.32 37.8 H 11 C411 0
1163 H 75.81 4.54 37.89 H 11 C411 0
1164 H 74.79 3.63 38.62 H 11 C411 0
1165 C1 76.01 4.64 39.94 C.3 11 C411 0
1166 O2 76.22 3.67 40.66 O.3 11 C411 0
1167 O3 76.49 5.87 40.29 O.3 11 C411 0
1168 C 74.94 6.85 38.37 C.3 11 C411 0
1169 H 74.28 7.53 38.31 H 11 C411 0
1170 H 75.5 7.02 39.11 H 11 C411 0
1171 H 75.46 6.84 37.57 H 11 C411 0
1172 C 71.18 6.07 41.51 C.3 11 C411 0
1173 C 72.15 7.06 41.31 C.3 11 C411 0
1174 H 70.61 6.32 42.23 H 11 C411 0
1175 H 72.74 7.08 42.05 H 11 C411 0
1176 H 71.73 7.91 41.22 H 11 C411 0
1177 C1 72.95 6.75 40.03 C.3 11 C411 0
1178 O2 73.15 7.64 39.2 O.3 11 C411 0
1179 O3 73.42 5.5 39.81 O.3 11 C411 0
1180 C 71.87 4.73 41.83 C.3 11 C411 0
1181 H 71.21 4.06 41.97 H 11 C411 0
1182 H 72.44 4.49 41.11 H 11 C411 0
1183 H 72.39 4.83 42.62 H 11 C411 0
1184 C 68.11 5.16 38.63 C.3 11 C411 0
1185 C 69.08 4.2 38.93 C.3 11 C411 0
1186 H 67.55 4.83 37.94 H 11 C411 0
1187 H 69.67 4.1 38.19 H 11 C411 0
1188 H 68.66 3.37 39.11 H 11 C411 0
1189 C1 69.88 4.65 40.17 C.3 11 C411 0
1190 O2 70.09 3.86 41.09 O.3 11 C411 0
1191 O3 70.36 5.92 40.25 O.3 11 C411 0
1192 C 68.8 6.45 38.15 C.3 11 C411 0
1193 H 68.14 7.11 37.95 H 11 C411 0
1194 H 69.37 6.78 38.84 H 11 C411 0
1195 H 69.32 6.27 37.38 H 11 C411 0
1196 C 65.04 6.38 41.39 C.3 11 C411 0
1197 C 66.01 7.31 40.98 C.3 11 C411 0
1198 H 64.48 6.79 42.04 H 11 C411 0
1199 H 66.6 7.49 41.7 H 11 C411 0
1200 H 65.59 8.11 40.71 H 11 C411 0
1201 C1 66.81 6.73 39.8 C.3 11 C411 0
1202 O2 67.02 7.41 38.8 O.3 11 C411 0
1203 O3 67.29 5.45 39.86 O.3 11 C411 0
1204 C 65.74 5.15 42 C.3 11 C411 0
1205 H 65.08 4.53 42.28 H 11 C411 0
1206 H 66.3 4.75 41.35 H 11 C411 0
1207 H 66.25 5.42 42.75 H 11 C411 0
1208 C 61.98 4.87 38.78 C.3 11 C411 0
1209 C 62.95 3.99 39.29 C.3 11 C411 0
1210 H 61.41 4.39 38.18 H 11 C411 0
1211 H 63.54 3.73 38.59 H 11 C411 0
1212 H 62.52 3.22 39.65 H 11 C411 0
1213 C1 63.74 4.7 40.4 C.3 11 C411 0
1214 O2 63.95 4.13 41.47 O.3 11 C411 0
1215 O3 64.22 5.96 40.2 O.3 11 C411 0
1216 C 62.67 6.02 38.03 C.3 11 C411 0
1217 H 62.01 6.61 37.69 H 11 C411 0
1218 H 63.23 6.49 38.63 H 11 C411 0
1219 H 63.19 5.67 37.32 H 11 C411 0
1220 C 58.91 6.66 41.2 C.3 11 C411 0
1221 C 59.88 7.47 40.6 C.3 11 C411 0
1222 H 58.34 7.2 41.75 H 11 C411 0
1223 H 60.47 7.81 41.27 H 11 C411 0
1224 H 59.46 8.2 40.16 H 11 C411 0
1225 C1 60.68 6.65 39.58 C.3 11 C411 0
1226 O2 60.88 7.1 38.45 O.3 11 C411 0
1227 O3 61.15 5.42 39.92 O.3 11 C411 0
1228 C 59.6 5.6 42.07 C.3 11 C411 0
1229 H 58.94 5.05 42.48 H 11 C411 0
1230 H 60.17 5.06 41.53 H 11 C411 0
1231 H 60.12 6.02 42.75 H 11 C411 0
1232 C 55.84 4.61 38.99 C.3 11 C411 0
1233 C 56.81 3.87 39.68 C.3 11 C411 0
1234 H 55.27 4.02 38.51 H 11 C411 0
1235 H 57.4 3.46 39.06 H 11 C411 0
1236 H 56.39 3.2 40.2 H 11 C411 0
1237 C1 57.61 4.8 40.61 C.3 11 C411 0
1238 O2 57.81 4.48 41.78 O.3 11 C411 0
1239 O3 58.09 5.99 40.13 O.3 11 C411 0
1240 C 56.53 5.57 38.01 C.3 11 C411 0
1241 H 55.87 6.08 37.55 H 11 C411 0
1242 H 57.1 6.16 38.49 H 11 C411 0
1243 H 57.05 5.08 37.39 H 11 C411 0
1244 C 52.77 6.9 40.96 C.3 11 C411 0
1245 C 53.74 7.56 40.2 C.3 11 C411 0
1246 H 52.21 7.54 41.38 H 11 C411 0
1247 H 54.33 8.03 40.77 H 11 C411 0
1248 H 53.32 8.17 39.61 H 11 C411 0
1249 C1 54.54 6.52 39.38 C.3 11 C411 0
1250 O2 54.75 6.71 38.18 O.3 11 C411 0
1251 O3 55.02 5.4 39.98 O.3 11 C411 0
1252 C 53.46 6.05 42.05 C.3 11 C411 0
1253 H 52.81 5.6 42.56 H 11 C411 0
1254 H 54.03 5.41 41.63 H 11 C411 0
1255 H 53.98 6.61 42.61 H 11 C411 0
1256 C 49.71 4.41 39.26 C.3 11 C411 0
1257 C 50.68 3.83 40.09 C.3 11 C411 0
1258 H 49.14 3.72 38.92 H 11 C411 0
1259 H 51.27 3.3 39.57 H 11 C411 0
1260 H 50.25 3.29 40.75 H 11 C411 0
1261 C1 51.47 4.95 40.79 C.3 11 C411 0
1262 O2 51.68 4.9 42 O.3 11 C411 0
1263 O3 51.95 6 40.07 O.3 11 C411 0
1264 C 50.4 5.13 38.09 C.3 11 C411 0
1265 H 49.74 5.52 37.52 H 11 C411 0
1266 H 50.96 5.81 38.43 H 11 C411 0
1267 H 50.91 4.51 37.59 H 11 C411 0
1268 C 46.64 7.07 40.68 C.3 11 C411 0
1269 C 47.61 7.55 39.79 C.3 11 C411 0
1270 H 46.07 7.79 40.94 H 11 C411 0
1271 H 48.2 8.13 40.24 H 11 C411 0
1272 H 47.19 8.01 39.08 H 11 C411 0
1273 C1 48.41 6.36 39.22 C.3 11 C411 0
1274 O2 48.61 6.28 38.01 O.3 11 C411 0
1275 O3 48.88 5.39 40.05 O.3 11 C411 0
1276 C 47.33 6.48 41.92 C.3 11 C411 0
1277 H 46.67 6.16 42.52 H 11 C411 0
1278 H 47.9 5.76 41.66 H 11 C411 0
1279 H 47.85 7.15 42.34 H 11 C411 0
1280 C 43.57 4.27 39.56 C.3 11 C411 0
1281 C 44.54 3.89 40.5 C.3 11 C411 0
1282 H 43.01 3.52 39.38 H 11 C411 0
1283 H 45.13 3.26 40.11 H 11 C411 0
1284 H 44.12 3.51 41.26 H 11 C411 0
1285 C1 45.34 5.14 40.94 C.3 11 C411 0
1286 O2 45.54 5.35 42.13 O.3 11 C411 0
1287 O3 45.82 6 40 O.3 11 C411 0
1288 C 44.26 4.72 38.26 C.3 11 C411 0
1289 H 43.6 4.97 37.63 H 11 C411 0
1290 H 44.83 5.46 38.44 H 11 C411 0
1291 H 44.78 4 37.91 H 11 C411 0
1292 C 40.5 7.18 40.36 C.3 11 C411 0
1293 C 41.47 7.44 39.39 C.3 11 C411 0
1294 H 39.94 7.93 40.46 H 11 C411 0
1295 H 42.06 8.12 39.7 H 11 C411 0
1296 H 41.05 7.74 38.59 H 11 C411 0
1297 C1 42.27 6.16 39.09 C.3 11 C411 0
1298 O2 42.48 5.82 37.93 O.3 11 C411 0
1299 O3 42.75 5.4 40.12 O.3 11 C411 0
1300 C 41.19 6.87 41.7 C.3 11 C411 0
1301 H 40.54 6.69 42.36 H 11 C411 0
1302 H 41.76 6.12 41.6 H 11 C411 0
1303 H 41.71 7.62 41.97 H 11 C411 0
1304 C 37.44 4.2 39.89 C.3 11 C411 0
1305 C 38.41 4.04 40.89 C.3 11 C411 0
1306 H 36.87 3.43 39.88 H 11 C411 0
1307 H 39 3.33 40.65 H 11 C411 0
1308 H 37.98 3.83 41.71 H 11 C411 0
1309 C1 39.2 5.35 41.04 C.3 11 C411 0
1310 O2 39.41 5.82 42.16 O.3 11 C411 0
1311 O3 39.68 5.99 39.94 O.3 11 C411 0
1312 C 38.13 4.35 38.52 C.3 11 C411 0
1313 H 37.47 4.46 37.85 H 11 C411 0
1314 H 38.69 5.11 38.54 H 11 C411 0
1315 H 38.64 3.57 38.34 H 11 C411 0
1316 C 34.37 7.21 40.03 C.3 11 C411 0
1317 C 35.34 7.26 39.02 C.3 11 C411 0
1318 H 33.8 7.97 39.96 H 11 C411 0
1319 H 35.93 7.98 39.18 H 11 C411 0
1320 H 34.91 7.37 38.18 H 11 C411 0
1321 C1 36.14 5.94 39.01 C.3 11 C411 0
1322 O2 36.34 5.35 37.95 O.3 11 C411 0
1323 O3 36.61 5.43 40.18 O.3 11 C411 0
1324 C 35.06 7.21 41.4 C.3 11 C411 0
1325 H 34.4 7.18 42.09 H 11 C411 0
1326 H 35.62 6.45 41.47 H 11 C411 0
1327 H 35.58 8 41.5 H 11 C411 0
1328 C 31.3 4.2 40.23 C.3 11 C411 0
1329 C 32.27 4.27 41.23 C.3 11 C411 0
1330 H 30.73 3.45 40.38 H 11 C411 0
1331 H 32.86 3.52 41.15 H 11 C411 0
1332 H 31.85 4.24 42.08 H 11 C411 0
1333 C1 33.07 5.58 41.09 C.3 11 C411 0
1334 O2 33.27 6.28 42.08 O.3 11 C411 0
1335 O3 33.54 5.95 39.88 O.3 11 C411 0
1336 C 31.99 4.05 38.86 C.3 11 C411 0
1337 H 31.33 4 38.17 H 11 C411 0
1338 H 32.56 4.8 38.7 H 11 C411 0
1339 H 32.51 3.25 38.85 H 11 C411 0
1340 C 28.23 7.17 39.7 C.3 11 C411 0
1341 C 29.2 7 38.7 C.3 11 C411 0
1342 H 27.67 7.9 39.46 H 11 C411 0
1343 H 29.79 7.74 38.7 H 11 C411 0
1344 H 28.78 6.92 37.86 H 11 C411 0
1345 C1 30 5.71 38.99 C.3 11 C411 0
1346 O2 30.21 4.9 38.08 O.3 11 C411 0
1347 O3 30.48 5.47 40.24 O.3 11 C411 0
1348 C 28.92 7.47 41.04 C.3 11 C411 0
1349 H 28.27 7.59 41.71 H 11 C411 0
1350 H 29.49 6.75 41.27 H 11 C411 0
1351 H 29.44 8.27 40.96 H 11 C411 0
1352 C 25.17 4.28 40.55 C.3 11 C411 0
1353 C 26.14 4.56 41.52 C.3 11 C411 0
1354 H 24.6 3.58 40.87 H 11 C411 0
1355 H 26.73 3.82 41.6 H 11 C411 0
1356 H 25.71 4.73 42.35 H 11 C411 0
1357 C1 26.93 5.81 41.09 C.3 11 C411 0
1358 O2 27.14 6.71 41.9 O.3 11 C411 0
1359 O3 27.41 5.91 39.83 O.3 11 C411 0
1360 C 25.86 3.83 39.25 C.3 11 C411 0
1361 H 25.2 3.64 38.59 H 11 C411 0
1362 H 26.42 4.52 38.94 H 11 C411 0
1363 H 26.37 3.05 39.42 H 11 C411 0
1364 C 22.1 7.06 39.38 C.3 11 C411 0
1365 C 23.07 6.67 38.45 C.3 11 C411 0
1366 H 21.53 7.72 38.99 H 11 C411 0
1367 H 23.66 7.39 38.28 H 11 C411 0
1368 H 22.64 6.41 37.64 H 11 C411 0
1369 C1 23.87 5.48 39.01 C.3 11 C411 0
1370 O2 24.07 4.49 38.31 O.3 11 C411 0
1371 O3 24.34 5.51 40.28 O.3 11 C411 0
1372 C 22.79 7.65 40.63 C.3 11 C411 0
1373 H 22.13 7.92 41.26 H 11 C411 0
1374 H 23.35 6.99 41.01 H 11 C411 0
1375 H 23.31 8.41 40.37 H 11 C411 0
1376 C 19.03 4.42 40.85 C.3 11 C411 0
1377 C 20 4.92 41.73 C.3 11 C411 0
1378 H 18.46 3.82 41.31 H 11 C411 0
1379 H 20.59 4.21 41.98 H 11 C411 0
1380 H 19.58 5.26 42.51 H 11 C411 0
1381 C1 20.8 6.04 41.04 C.3 11 C411 0
1382 O2 21 7.1 41.64 O.3 11 C411 0
1383 O3 21.27 5.86 39.78 O.3 11 C411 0
1384 C 19.72 3.7 39.68 C.3 11 C411 0
1385 H 19.06 3.37 39.08 H 11 C411 0
1386 H 20.29 4.31 39.22 H 11 C411 0
1387 H 20.24 2.98 40.02 H 11 C411 0
1388 C 15.96 6.88 39.1 C.3 11 C411 0
1389 C 16.93 6.3 38.28 C.3 11 C411 0
1390 H 15.4 7.44 38.58 H 11 C411 0
1391 H 17.52 6.97 37.96 H 11 C411 0
1392 H 16.51 5.87 37.54 H 11 C411 0
1393 C1 17.73 5.26 39.09 C.3 11 C411 0
1394 O2 17.94 4.14 38.62 O.3 11 C411 0
1395 O3 18.21 5.57 40.32 O.3 11 C411 0
1396 C 16.65 7.73 40.18 C.3 11 C411 0
1397 H 16 8.13 40.74 H 11 C411 0
1398 H 17.22 7.18 40.71 H 11 C411 0
1399 H 17.17 8.41 39.77 H 11 C411 0
1400 C 12.89 4.63 41.11 C.3 11 C411 0
1401 C 13.87 5.31 41.87 C.3 11 C411 0
1402 H 12.33 4.14 41.69 H 11 C411 0
1403 H 14.45 4.68 42.26 H 11 C411 0
1404 H 13.44 5.81 42.55 H 11 C411 0
1405 C1 14.66 6.25 40.95 C.3 11 C411 0
1406 O2 14.87 7.42 41.29 O.3 11 C411 0
1407 O3 15.14 5.8 39.76 O.3 11 C411 0
1408 C 13.59 3.67 40.13 C.3 11 C411 0
1409 H 12.93 3.21 39.62 H 11 C411 0
1410 H 14.15 4.16 39.55 H 11 C411 0
1411 H 14.1 3.04 40.62 H 11 C411 0
1412 C 9.83 6.65 38.86 C.3 11 C411 0
1413 C 10.8 5.89 38.19 C.3 11 C411 0
1414 H 9.26 7.07 38.23 H 11 C411 0
1415 H 11.39 6.48 37.73 H 11 C411 0
1416 H 10.37 5.31 37.57 H 11 C411 0
1417 C1 11.59 5.06 39.21 C.3 11 C411 0
1418 O2 11.8 3.86 38.99 O.3 11 C411 0
1419 O3 12.07 5.64 40.34 O.3 11 C411 0
1420 C 10.52 7.71 39.73 C.3 11 C411 0
1421 H 9.86 8.22 40.19 H 11 C411 0
1422 H 11.08 7.29 40.37 H 11 C411 0
1423 H 11.04 8.29 39.18 H 11 C411 0
1424 C 6.76 4.9 41.32 C.3 11 C411 0
1425 C 7.73 5.72 41.91 C.3 11 C411 0
1426 H 6.19 4.54 42 H 11 C411 0
1427 H 8.32 5.19 42.43 H 11 C411 0
1428 H 7.31 6.36 42.46 H 11 C411 0
1429 C1 8.53 6.44 40.8 C.3 11 C411 0
1430 O2 8.73 7.65 40.88 O.3 11 C411 0
1431 O3 9 5.74 39.74 O.3 11 C411 0
1432 C 7.45 3.74 40.57 C.3 11 C411 0
1433 H 6.79 3.18 40.18 H 11 C411 0
1434 H 8.02 4.09 39.9 H 11 C411 0
1435 H 7.97 3.23 41.19 H 11 C411 0
1436 H 3.17 5.93 39.35 H 12 C412 0
1437 C 3.69 6.36 38.68 C.3 12 C412 0
1438 C 4.66 5.48 38.19 C.3 12 C412 0
1439 H 3.13 6.64 37.97 H 12 C412 0
1440 H 5.25 5.95 37.62 H 12 C412 0
1441 H 4.24 4.78 37.71 H 12 C412 0
1442 C1 5.46 4.89 39.37 C.3 12 C412 0
1443 O2 5.67 3.68 39.43 O.3 12 C412 0
1444 O3 5.94 5.7 40.35 O.3 12 C412 0
1445 C 4.38 7.6 39.3 C.3 12 C412 0
1446 H 3.72 8.19 39.63 H 12 C412 0
1447 H 4.95 7.32 40.01 H 12 C412 0
1448 H 4.9 8.03 38.63 H 12 C412 0
1449 C 92.65 6.45 50.17 C.3 13 C413 0
1450 C 93.62 5.61 49.62 C.3 13 C413 0
1451 H 92.09 6.78 49.48 H 13 C413 0
1452 H 94.21 6.12 49.08 H 13 C413 0
1453 H 93.2 4.94 49.09 H 13 C413 0
1454 C1 94.42 4.93 50.75 C.3 13 C413 0
1455 O2 94.63 3.72 50.72 O.3 13 C413 0
1456 O3 94.9 5.67 51.78 O.3 13 C413 0
1457 H5 95.42 5.12 52.36 H 13 C413 0
1458 C 93.34 7.63 50.88 C.3 13 C413 0
1459 H 92.68 8.21 51.25 H 13 C413 0
1460 H 93.91 7.31 51.56 H 13 C413 0
1461 H 93.86 8.12 50.24 H 13 C413 0
1462 C 89.58 5.09 52.86 C.3 14 C414 0
1463 C 90.55 5.99 53.32 C.3 14 C414 0
1464 H 89.02 4.84 53.58 H 14 C414 0
1465 H 91.15 5.54 53.92 H 14 C414 0
1466 H 90.13 6.71 53.77 H 14 C414 0
1467 C1 91.35 6.53 52.12 C.3 14 C414 0
1468 O2 91.56 7.74 52.02 O.3 14 C414 0
1469 O3 91.83 5.68 51.18 O.3 14 C414 0
1470 C 90.28 3.83 52.3 C.3 14 C414 0
1471 H 89.62 3.22 51.99 H 14 C414 0
1472 H 90.84 4.08 51.58 H 14 C414 0
1473 H 90.79 3.42 52.98 H 14 C414 0
1474 C 86.52 6.15 50.04 C.3 14 C414 0
1475 C 87.49 5.2 49.68 C.3 14 C414 0
1476 H 85.95 6.31 49.29 H 14 C414 0
1477 H 88.08 5.58 49.04 H 14 C414 0
1478 H 87.06 4.44 49.31 H 14 C414 0
1479 C1 88.28 4.79 50.94 C.3 14 C414 0
1480 O2 88.49 3.6 51.17 O.3 14 C414 0
1481 O3 88.76 5.74 51.78 O.3 14 C414 0
1482 C 87.21 7.46 50.46 C.3 14 C414 0
1483 H 86.55 8.1 50.7 H 14 C414 0
1484 H 87.77 7.29 51.21 H 14 C414 0
1485 H 87.73 7.79 49.74 H 14 C414 0
1486 C 83.45 5.41 52.96 C.3 14 C414 0
1487 C 84.42 6.38 53.21 C.3 14 C414 0
1488 H 82.88 5.32 53.72 H 14 C414 0
1489 H 85.01 6.08 53.89 H 14 C414 0
1490 H 84 7.19 53.5 H 14 C414 0
1491 C1 85.22 6.66 51.92 C.3 14 C414 0
1492 O2 85.42 7.81 51.56 O.3 14 C414 0
1493 O3 85.69 5.62 51.19 O.3 14 C414 0
1494 C 84.14 4.06 52.69 C.3 14 C414 0
1495 H 83.48 3.39 52.52 H 14 C414 0
1496 H 84.71 4.14 51.93 H 14 C414 0
1497 H 84.66 3.81 53.44 H 14 C414 0
1498 C 80.38 5.82 49.97 C.3 14 C414 0
1499 C 81.35 4.82 49.84 C.3 14 C414 0
1500 H 79.82 5.82 49.21 H 14 C414 0
1501 H 81.94 5.05 49.13 H 14 C414 0
1502 H 80.93 3.99 49.64 H 14 C414 0
1503 C1 82.15 4.69 51.15 C.3 14 C414 0
1504 O2 82.36 3.58 51.64 O.3 14 C414 0
1505 O3 82.63 5.81 51.76 O.3 14 C414 0
1506 C 81.07 7.19 50.1 C.3 14 C414 0
1507 H 80.41 7.87 50.2 H 14 C414 0
1508 H 81.64 7.19 50.86 H 14 C414 0
1509 H 81.59 7.36 49.32 H 14 C414 0
1510 C 77.31 5.74 52.99 C.3 14 C414 0
1511 C 78.28 6.75 53.02 C.3 14 C414 0
1512 H 76.75 5.82 53.75 H 14 C414 0
1513 H 78.88 6.6 53.75 H 14 C414 0
1514 H 77.86 7.59 53.12 H 14 C414 0
1515 C1 79.08 6.73 51.7 C.3 14 C414 0
1516 O2 79.29 7.78 51.09 O.3 14 C414 0
1517 O3 79.56 5.55 51.21 O.3 14 C414 0
1518 C 78.01 4.36 53.02 C.3 14 C414 0
1519 H 77.35 3.68 53 H 14 C414 0
1520 H 78.57 4.28 52.26 H 14 C414 0
1521 H 78.52 4.28 53.81 H 14 C414 0
1522 C 74.25 5.49 49.98 C.3 14 C414 0
1523 C 75.22 4.48 50.07 C.3 14 C414 0
1524 H 73.68 5.32 49.24 H 14 C414 0
1525 H 75.81 4.54 49.33 H 14 C414 0
1526 H 74.79 3.63 50.06 H 14 C414 0
1527 C1 76.01 4.64 51.38 C.3 14 C414 0
1528 O2 76.22 3.67 52.1 O.3 14 C414 0
1529 O3 76.49 5.87 51.73 O.3 14 C414 0
1530 C 74.94 6.85 49.81 C.3 14 C414 0
1531 H 74.28 7.53 49.75 H 14 C414 0
1532 H 75.5 7.02 50.55 H 14 C414 0
1533 H 75.46 6.84 49.01 H 14 C414 0
1534 C 71.18 6.07 52.95 C.3 14 C414 0
1535 C 72.15 7.06 52.75 C.3 14 C414 0
1536 H 70.61 6.32 53.67 H 14 C414 0
1537 H 72.74 7.08 53.49 H 14 C414 0
1538 H 71.73 7.91 52.66 H 14 C414 0
1539 C1 72.95 6.75 51.47 C.3 14 C414 0
1540 O2 73.15 7.64 50.64 O.3 14 C414 0
1541 O3 73.42 5.5 51.25 O.3 14 C414 0
1542 C 71.87 4.73 53.27 C.3 14 C414 0
1543 H 71.21 4.06 53.41 H 14 C414 0
1544 H 72.44 4.49 52.55 H 14 C414 0
1545 H 72.39 4.83 54.06 H 14 C414 0
1546 C 68.11 5.16 50.07 C.3 14 C414 0
1547 C 69.08 4.2 50.37 C.3 14 C414 0
1548 H 67.55 4.83 49.38 H 14 C414 0
1549 H 69.67 4.1 49.63 H 14 C414 0
1550 H 68.66 3.37 50.55 H 14 C414 0
1551 C1 69.88 4.65 51.61 C.3 14 C414 0
1552 O2 70.09 3.86 52.53 O.3 14 C414 0
1553 O3 70.36 5.92 51.69 O.3 14 C414 0
1554 C 68.8 6.45 49.59 C.3 14 C414 0
1555 H 68.14 7.11 49.39 H 14 C414 0
1556 H 69.37 6.78 50.28 H 14 C414 0
1557 H 69.32 6.27 48.82 H 14 C414 0
1558 C 65.04 6.38 52.83 C.3 14 C414 0
1559 C 66.01 7.31 52.42 C.3 14 C414 0
1560 H 64.48 6.79 53.48 H 14 C414 0
1561 H 66.6 7.49 53.14 H 14 C414 0
1562 H 65.59 8.11 52.15 H 14 C414 0
1563 C1 66.81 6.73 51.24 C.3 14 C414 0
1564 O2 67.02 7.41 50.24 O.3 14 C414 0
1565 O3 67.29 5.45 51.3 O.3 14 C414 0
1566 C 65.74 5.15 53.44 C.3 14 C414 0
1567 H 65.08 4.53 53.72 H 14 C414 0
1568 H 66.3 4.75 52.79 H 14 C414 0
1569 H 66.25 5.42 54.19 H 14 C414 0
1570 C 61.98 4.87 50.22 C.3 14 C414 0
1571 C 62.95 3.99 50.73 C.3 14 C414 0
1572 H 61.41 4.39 49.62 H 14 C414 0
1573 H 63.54 3.73 50.03 H 14 C414 0
1574 H 62.52 3.22 51.09 H 14 C414 0
1575 C1 63.74 4.7 51.84 C.3 14 C414 0
1576 O2 63.95 4.13 52.91 O.3 14 C414 0
1577 O3 64.22 5.96 51.64 O.3 14 C414 0
1578 C 62.67 6.02 49.47 C.3 14 C414 0
1579 H 62.01 6.61 49.13 H 14 C414 0
1580 H 63.23 6.49 50.07 H 14 C414 0
1581 H 63.19 5.67 48.76 H 14 C414 0
1582 C 58.91 6.66 52.64 C.3 14 C414 0
1583 C 59.88 7.47 52.04 C.3 14 C414 0
1584 H 58.34 7.2 53.19 H 14 C414 0
1585 H 60.47 7.81 52.71 H 14 C414 0
1586 H 59.46 8.2 51.6 H 14 C414 0
1587 C1 60.68 6.65 51.02 C.3 14 C414 0
1588 O2 60.88 7.1 49.89 O.3 14 C414 0
1589 O3 61.15 5.42 51.36 O.3 14 C414 0
1590 C 59.6 5.6 53.51 C.3 14 C414 0
1591 H 58.94 5.05 53.92 H 14 C414 0
1592 H 60.17 5.06 52.97 H 14 C414 0
1593 H 60.12 6.02 54.19 H 14 C414 0
1594 C 55.84 4.61 50.43 C.3 14 C414 0
1595 C 56.81 3.87 51.12 C.3 14 C414 0
1596 H 55.27 4.02 49.95 H 14 C414 0
1597 H 57.4 3.46 50.5 H 14 C414 0
1598 H 56.39 3.2 51.64 H 14 C414 0
1599 C1 57.61 4.8 52.05 C.3 14 C414 0
1600 O2 57.81 4.48 53.22 O.3 14 C414 0
1601 O3 58.09 5.99 51.57 O.3 14 C414 0
1602 C 56.53 5.57 49.45 C.3 14 C414 0
1603 H 55.87 6.08 48.99 H 14 C414 0
1604 H 57.1 6.16 49.93 H 14 C414 0
1605 H 57.05 5.08 48.83 H 14 C414 0
1606 C 52.77 6.9 52.4 C.3 14 C414 0
1607 C 53.74 7.56 51.64 C.3 14 C414 0
1608 H 52.21 7.54 52.82 H 14 C414 0
1609 H 54.33 8.03 52.21 H 14 C414 0
1610 H 53.32 8.17 51.05 H 14 C414 0
1611 C1 54.54 6.52 50.82 C.3 14 C414 0
1612 O2 54.75 6.71 49.62 O.3 14 C414 0
1613 O3 55.02 5.4 51.42 O.3 14 C414 0
1614 C 53.46 6.05 53.49 C.3 14 C414 0
1615 H 52.81 5.6 54 H 14 C414 0
1616 H 54.03 5.41 53.07 H 14 C414 0
1617 H 53.98 6.61 54.05 H 14 C414 0
1618 C 49.71 4.41 50.7 C.3 14 C414 0
1619 C 50.68 3.83 51.53 C.3 14 C414 0
1620 H 49.14 3.72 50.36 H 14 C414 0
1621 H 51.27 3.3 51.01 H 14 C414 0
1622 H 50.25 3.29 52.19 H 14 C414 0
1623 C1 51.47 4.95 52.23 C.3 14 C414 0
1624 O2 51.68 4.9 53.44 O.3 14 C414 0
1625 O3 51.95 6 51.51 O.3 14 C414 0
1626 C 50.4 5.13 49.53 C.3 14 C414 0
1627 H 49.74 5.52 48.96 H 14 C414 0
1628 H 50.96 5.81 49.87 H 14 C414 0
1629 H 50.91 4.51 49.03 H 14 C414 0
1630 C 46.64 7.07 52.12 C.3 14 C414 0
1631 C 47.61 7.55 51.23 C.3 14 C414 0
1632 H 46.07 7.79 52.38 H 14 C414 0
1633 H 48.2 8.13 51.68 H 14 C414 0
1634 H 47.19 8.01 50.52 H 14 C414 0
1635 C1 48.41 6.36 50.66 C.3 14 C414 0
1636 O2 48.61 6.28 49.45 O.3 14 C414 0
1637 O3 48.88 5.39 51.49 O.3 14 C414 0
1638 C 47.33 6.48 53.36 C.3 14 C414 0
1639 H 46.67 6.16 53.96 H 14 C414 0
1640 H 47.9 5.76 53.1 H 14 C414 0
1641 H 47.85 7.15 53.78 H 14 C414 0
1642 C 43.57 4.27 51 C.3 14 C414 0
1643 C 44.54 3.89 51.94 C.3 14 C414 0
1644 H 43.01 3.52 50.82 H 14 C414 0
1645 H 45.13 3.26 51.55 H 14 C414 0
1646 H 44.12 3.51 52.7 H 14 C414 0
1647 C1 45.34 5.14 52.38 C.3 14 C414 0
1648 O2 45.54 5.35 53.57 O.3 14 C414 0
1649 O3 45.82 6 51.44 O.3 14 C414 0
1650 C 44.26 4.72 49.7 C.3 14 C414 0
1651 H 43.6 4.97 49.07 H 14 C414 0
1652 H 44.83 5.46 49.88 H 14 C414 0
1653 H 44.78 4 49.35 H 14 C414 0
1654 C 40.5 7.18 51.8 C.3 14 C414 0
1655 C 41.47 7.44 50.83 C.3 14 C414 0
1656 H 39.94 7.93 51.9 H 14 C414 0
1657 H 42.06 8.12 51.14 H 14 C414 0
1658 H 41.05 7.74 50.03 H 14 C414 0
1659 C1 42.27 6.16 50.53 C.3 14 C414 0
1660 O2 42.48 5.82 49.37 O.3 14 C414 0
1661 O3 42.75 5.4 51.56 O.3 14 C414 0
1662 C 41.19 6.87 53.14 C.3 14 C414 0
1663 H 40.54 6.69 53.8 H 14 C414 0
1664 H 41.76 6.12 53.04 H 14 C414 0
1665 H 41.71 7.62 53.41 H 14 C414 0
1666 C 37.44 4.2 51.33 C.3 14 C414 0
1667 C 38.41 4.04 52.33 C.3 14 C414 0
1668 H 36.87 3.43 51.32 H 14 C414 0
1669 H 39 3.33 52.09 H 14 C414 0
1670 H 37.98 3.83 53.15 H 14 C414 0
1671 C1 39.2 5.35 52.48 C.3 14 C414 0
1672 O2 39.41 5.82 53.6 O.3 14 C414 0
1673 O3 39.68 5.99 51.38 O.3 14 C414 0
1674 C 38.13 4.35 49.96 C.3 14 C414 0
1675 H 37.47 4.46 49.29 H 14 C414 0
1676 H 38.69 5.11 49.98 H 14 C414 0
1677 H 38.64 3.57 49.78 H 14 C414 0
1678 C 34.37 7.21 51.47 C.3 14 C414 0
1679 C 35.34 7.26 50.46 C.3 14 C414 0
1680 H 33.8 7.97 51.4 H 14 C414 0
1681 H 35.93 7.98 50.62 H 14 C414 0
1682 H 34.91 7.37 49.62 H 14 C414 0
1683 C1 36.14 5.94 50.45 C.3 14 C414 0
1684 O2 36.34 5.35 49.39 O.3 14 C414 0
1685 O3 36.61 5.43 51.62 O.3 14 C414 0
1686 C 35.06 7.21 52.84 C.3 14 C414 0
1687 H 34.4 7.18 53.53 H 14 C414 0
1688 H 35.62 6.45 52.91 H 14 C414 0
1689 H 35.58 8 52.94 H 14 C414 0
1690 C 31.3 4.2 51.67 C.3 14 C414 0
1691 C 32.27 4.27 52.67 C.3 14 C414 0
1692 H 30.73 3.45 51.82 H 14 C414 0
1693 H 32.86 3.52 52.59 H 14 C414 0
1694 H 31.85 4.24 53.52 H 14 C414 0
1695 C1 33.07 5.58 52.53 C.3 14 C414 0
1696 O2 33.27 6.28 53.52 O.3 14 C414 0
1697 O3 33.54 5.95 51.32 O.3 14 C414 0
1698 C 31.99 4.05 50.3 C.3 14 C414 0
1699 H 31.33 4 49.61 H 14 C414 0
1700 H 32.56 4.8 50.14 H 14 C414 0
1701 H 32.51 3.25 50.29 H 14 C414 0
1702 C 28.23 7.17 51.14 C.3 14 C414 0
1703 C 29.2 7 50.14 C.3 14 C414 0
1704 H 27.67 7.9 50.9 H 14 C414 0
1705 H 29.79 7.74 50.14 H 14 C414 0
1706 H 28.78 6.92 49.3 H 14 C414 0
1707 C1 30 5.71 50.43 C.3 14 C414 0
1708 O2 30.21 4.9 49.52 O.3 14 C414 0
1709 O3 30.48 5.47 51.68 O.3 14 C414 0
1710 C 28.92 7.47 52.48 C.3 14 C414 0
1711 H 28.27 7.59 53.15 H 14 C414 0
1712 H 29.49 6.75 52.71 H 14 C414 0
1713 H 29.44 8.27 52.4 H 14 C414 0
1714 C 25.17 4.28 51.99 C.3 14 C414 0
1715 C 26.14 4.56 52.96 C.3 14 C414 0
1716 H 24.6 3.58 52.31 H 14 C414 0
1717 H 26.73 3.82 53.04 H 14 C414 0
1718 H 25.71 4.73 53.79 H 14 C414 0
1719 C1 26.93 5.81 52.53 C.3 14 C414 0
1720 O2 27.14 6.71 53.34 O.3 14 C414 0
1721 O3 27.41 5.91 51.27 O.3 14 C414 0
1722 C 25.86 3.83 50.69 C.3 14 C414 0
1723 H 25.2 3.64 50.03 H 14 C414 0
1724 H 26.42 4.52 50.38 H 14 C414 0
1725 H 26.37 3.05 50.86 H 14 C414 0
1726 C 22.1 7.06 50.82 C.3 14 C414 0
1727 C 23.07 6.67 49.89 C.3 14 C414 0
1728 H 21.53 7.72 50.43 H 14 C414 0
1729 H 23.66 7.39 49.72 H 14 C414 0
1730 H 22.64 6.41 49.08 H 14 C414 0
1731 C1 23.87 5.48 50.45 C.3 14 C414 0
1732 O2 24.07 4.49 49.75 O.3 14 C414 0
1733 O3 24.34 5.51 51.72 O.3 14 C414 0
1734 C 22.79 7.65 52.07 C.3 14 C414 0
1735 H 22.13 7.92 52.7 H 14 C414 0
1736 H 23.35 6.99 52.45 H 14 C414 0
1737 H 23.31 8.41 51.81 H 14 C414 0
1738 C 19.03 4.42 52.29 C.3 14 C414 0
1739 C 20 4.92 53.17 C.3 14 C414 0
1740 H 18.46 3.82 52.75 H 14 C414 0
1741 H 20.59 4.21 53.42 H 14 C414 0
1742 H 19.58 5.26 53.95 H 14 C414 0
1743 C1 20.8 6.04 52.48 C.3 14 C414 0
1744 O2 21 7.1 53.08 O.3 14 C414 0
1745 O3 21.27 5.86 51.22 O.3 14 C414 0
1746 C 19.72 3.7 51.12 C.3 14 C414 0
1747 H 19.06 3.37 50.52 H 14 C414 0
1748 H 20.29 4.31 50.66 H 14 C414 0
1749 H 20.24 2.98 51.46 H 14 C414 0
1750 C 15.96 6.88 50.54 C.3 14 C414 0
1751 C 16.93 6.3 49.72 C.3 14 C414 0
1752 H 15.4 7.44 50.02 H 14 C414 0
1753 H 17.52 6.97 49.4 H 14 C414 0
1754 H 16.51 5.87 48.98 H 14 C414 0
1755 C1 17.73 5.26 50.53 C.3 14 C414 0
1756 O2 17.94 4.14 50.06 O.3 14 C414 0
1757 O3 18.21 5.57 51.76 O.3 14 C414 0
1758 C 16.65 7.73 51.62 C.3 14 C414 0
1759 H 16 8.13 52.18 H 14 C414 0
1760 H 17.22 7.18 52.15 H 14 C414 0
1761 H 17.17 8.41 51.21 H 14 C414 0
1762 C 12.89 4.63 52.55 C.3 14 C414 0
1763 C 13.87 5.31 53.31 C.3 14 C414 0
1764 H 12.33 4.14 53.13 H 14 C414 0
1765 H 14.45 4.68 53.7 H 14 C414 0
1766 H 13.44 5.81 53.99 H 14 C414 0
1767 C1 14.66 6.25 52.39 C.3 14 C414 0
1768 O2 14.87 7.42 52.73 O.3 14 C414 0
1769 O3 15.14 5.8 51.2 O.3 14 C414 0
1770 C 13.59 3.67 51.57 C.3 14 C414 0
1771 H 12.93 3.21 51.06 H 14 C414 0
1772 H 14.15 4.16 50.99 H 14 C414 0
1773 H 14.1 3.04 52.06 H 14 C414 0
1774 C 9.83 6.65 50.3 C.3 14 C414 0
1775 C 10.8 5.89 49.63 C.3 14 C414 0
1776 H 9.26 7.07 49.67 H 14 C414 0
1777 H 11.39 6.48 49.17 H 14 C414 0
1778 H 10.37 5.31 49.01 H 14 C414 0
1779 C1 11.59 5.06 50.65 C.3 14 C414 0
1780 O2 11.8 3.86 50.43 O.3 14 C414 0
1781 O3 12.07 5.64 51.78 O.3 14 C414 0
1782 C 10.52 7.71 51.17 C.3 14 C414 0
1783 H 9.86 8.22 51.63 H 14 C414 0
1784 H 11.08 7.29 51.81 H 14 C414 0
1785 H 11.04 8.29 50.62 H 14 C414 0
1786 C 6.76 4.9 52.76 C.3 14 C414 0
1787 C 7.73 5.72 53.35 C.3 14 C414 0
1788 H 6.19 4.54 53.44 H 14 C414 0
1789 H 8.32 5.19 53.87 H 14 C414 0
1790 H 7.31 6.36 53.9 H 14 C414 0
1791 C1 8.53 6.44 52.24 C.3 14 C414 0
1792 O2 8.73 7.65 52.32 O.3 14 C414 0
1793 O3 9 5.74 51.18 O.3 14 C414 0
1794 C 7.45 3.74 52.01 C.3 14 C414 0
1795 H 6.79 3.18 51.62 H 14 C414 0
1796 H 8.02 4.09 51.34 H 14 C414 0
1797 H 7.97 3.23 52.63 H 14 C414 0
1798 H 3.17 5.93 50.79 H 15 C415 0
1799 C 3.69 6.36 50.12 C.3 15 C415 0
1800 C 4.66 5.48 49.63 C.3 15 C415 0
1801 H 3.13 6.64 49.41 H 15 C415 0
1802 H 5.25 5.95 49.06 H 15 C415 0
1803 H 4.24 4.78 49.15 H 15 C415 0
1804 C1 5.46 4.89 50.81 C.3 15 C415 0
1805 O2 5.67 3.68 50.87 O.3 15 C415 0
1806 O3 5.94 5.7 51.79 O.3 15 C415 0
1807 C 4.38 7.6 50.74 C.3 15 C415 0
1808 H 3.72 8.19 51.07 H 15 C415 0
1809 H 4.95 7.32 51.45 H 15 C415 0
1810 H 4.9 8.03 50.07 H 15 C415 0
1811 C 92.65 6.45 61.6 C.3 16 C416 0
1812 C 93.62 5.61 61.05 C.3 16 C416 0
1813 H 92.09 6.78 60.91 H 16 C416 0
1814 H 94.21 6.12 60.51 H 16 C416 0
1815 H 93.2 4.94 60.52 H 16 C416 0
1816 C1 94.42 4.93 62.18 C.3 16 C416 0
1817 O2 94.63 3.72 62.15 O.3 16 C416 0
1818 O3 94.9 5.67 63.21 O.3 16 C416 0
1819 H5 95.42 5.12 63.79 H 16 C416 0
1820 C 93.34 7.63 62.31 C.3 16 C416 0
1821 H 92.68 8.21 62.68 H 16 C416 0
1822 H 93.91 7.31 62.99 H 16 C416 0
1823 H 93.86 8.12 61.67 H 16 C416 0
1824 C 89.58 5.09 64.29 C.3 17 C417 0
1825 C 90.55 5.99 64.75 C.3 17 C417 0
1826 H 89.02 4.84 65.01 H 17 C417 0
1827 H 91.15 5.54 65.35 H 17 C417 0
1828 H 90.13 6.71 65.2 H 17 C417 0
1829 C1 91.35 6.53 63.55 C.3 17 C417 0
1830 O2 91.56 7.74 63.45 O.3 17 C417 0
1831 O3 91.83 5.68 62.61 O.3 17 C417 0
1832 C 90.28 3.83 63.73 C.3 17 C417 0
1833 H 89.62 3.22 63.42 H 17 C417 0
1834 H 90.84 4.08 63.01 H 17 C417 0
1835 H 90.79 3.42 64.41 H 17 C417 0
1836 C 86.52 6.15 61.47 C.3 17 C417 0
1837 C 87.49 5.2 61.11 C.3 17 C417 0
1838 H 85.95 6.31 60.72 H 17 C417 0
1839 H 88.08 5.58 60.47 H 17 C417 0
1840 H 87.06 4.44 60.74 H 17 C417 0
1841 C1 88.28 4.79 62.37 C.3 17 C417 0
1842 O2 88.49 3.6 62.6 O.3 17 C417 0
1843 O3 88.76 5.74 63.21 O.3 17 C417 0
1844 C 87.21 7.46 61.89 C.3 17 C417 0
1845 H 86.55 8.1 62.13 H 17 C417 0
1846 H 87.77 7.29 62.64 H 17 C417 0
1847 H 87.73 7.79 61.17 H 17 C417 0
1848 C 83.45 5.41 64.39 C.3 17 C417 0
1849 C 84.42 6.38 64.64 C.3 17 C417 0
1850 H 82.88 5.32 65.15 H 17 C417 0
1851 H 85.01 6.08 65.32 H 17 C417 0
1852 H 84 7.19 64.93 H 17 C417 0
1853 C1 85.22 6.66 63.35 C.3 17 C417 0
1854 O2 85.42 7.81 62.99 O.3 17 C417 0
1855 O3 85.69 5.62 62.62 O.3 17 C417 0
1856 C 84.14 4.06 64.12 C.3 17 C417 0
1857 H 83.48 3.39 63.95 H 17 C417 0
1858 H 84.71 4.14 63.36 H 17 C417 0
1859 H 84.66 3.81 64.87 H 17 C417 0
1860 C 80.38 5.82 61.4 C.3 17 C417 0
1861 C 81.35 4.82 61.27 C.3 17 C417 0
1862 H 79.82 5.82 60.64 H 17 C417 0
1863 H 81.94 5.05 60.56 H 17 C417 0
1864 H 80.93 3.99 61.07 H 17 C417 0
1865 C1 82.15 4.69 62.58 C.3 17 C417 0
1866 O2 82.36 3.58 63.07 O.3 17 C417 0
1867 O3 82.63 5.81 63.19 O.3 17 C417 0
1868 C 81.07 7.19 61.53 C.3 17 C417 0
1869 H 80.41 7.87 61.63 H 17 C417 0
1870 H 81.64 7.19 62.29 H 17 C417 0
1871 H 81.59 7.36 60.75 H 17 C417 0
1872 C 77.31 5.74 64.42 C.3 17 C417 0
1873 C 78.28 6.75 64.45 C.3 17 C417 0
1874 H 76.75 5.82 65.18 H 17 C417 0
1875 H 78.88 6.6 65.18 H 17 C417 0
1876 H 77.86 7.59 64.55 H 17 C417 0
1877 C1 79.08 6.73 63.13 C.3 17 C417 0
1878 O2 79.29 7.78 62.52 O.3 17 C417 0
1879 O3 79.56 5.55 62.64 O.3 17 C417 0
1880 C 78.01 4.36 64.45 C.3 17 C417 0
1881 H 77.35 3.68 64.43 H 17 C417 0
1882 H 78.57 4.28 63.69 H 17 C417 0
1883 H 78.52 4.28 65.24 H 17 C417 0
1884 C 74.25 5.49 61.41 C.3 17 C417 0
1885 C 75.22 4.48 61.5 C.3 17 C417 0
1886 H 73.68 5.32 60.67 H 17 C417 0
1887 H 75.81 4.54 60.76 H 17 C417 0
1888 H 74.79 3.63 61.49 H 17 C417 0
1889 C1 76.01 4.64 62.81 C.3 17 C417 0
1890 O2 76.22 3.67 63.53 O.3 17 C417 0
1891 O3 76.49 5.87 63.16 O.3 17 C417 0
1892 C 74.94 6.85 61.24 C.3 17 C417 0
1893 H 74.28 7.53 61.18 H 17 C417 0
1894 H 75.5 7.02 61.98 H 17 C417 0
1895 H 75.46 6.84 60.44 H 17 C417 0
1896 C 71.18 6.07 64.38 C.3 17 C417 0
1897 C 72.15 7.06 64.18 C.3 17 C417 0
1898 H 70.61 6.32 65.1 H 17 C417 0
1899 H 72.74 7.08 64.92 H 17 C417 0
1900 H 71.73 7.91 64.09 H 17 C417 0
1901 C1 72.95 6.75 62.9 C.3 17 C417 0
1902 O2 73.15 7.64 62.07 O.3 17 C417 0
1903 O3 73.42 5.5 62.68 O.3 17 C417 0
1904 C 71.87 4.73 64.7 C.3 17 C417 0
1905 H 71.21 4.06 64.84 H 17 C417 0
1906 H 72.44 4.49 63.98 H 17 C417 0
1907 H 72.39 4.83 65.49 H 17 C417 0
1908 C 68.11 5.16 61.5 C.3 17 C417 0
1909 C 69.08 4.2 61.8 C.3 17 C417 0
1910 H 67.55 4.83 60.81 H 17 C417 0
1911 H 69.67 4.1 61.06 H 17 C417 0
1912 H 68.66 3.37 61.98 H 17 C417 0
1913 C1 69.88 4.65 63.04 C.3 17 C417 0
1914 O2 70.09 3.86 63.96 O.3 17 C417 0
1915 O3 70.36 5.92 63.12 O.3 17 C417 0
1916 C 68.8 6.45 61.02 C.3 17 C417 0
1917 H 68.14 7.11 60.82 H 17 C417 0
1918 H 69.37 6.78 61.71 H 17 C417 0
1919 H 69.32 6.27 60.25 H 17 C417 0
1920 C 65.04 6.38 64.26 C.3 17 C417 0
1921 C 66.01 7.31 63.85 C.3 17 C417 0
1922 H 64.48 6.79 64.91 H 17 C417 0
1923 H 66.6 7.49 64.57 H 17 C417 0
1924 H 65.59 8.11 63.58 H 17 C417 0
1925 C1 66.81 6.73 62.67 C.3 17 C417 0
1926 O2 67.02 7.41 61.67 O.3 17 C417 0
1927 O3 67.29 5.45 62.73 O.3 17 C417 0
1928 C 65.74 5.15 64.87 C.3 17 C417 0
1929 H 65.08 4.53 65.15 H 17 C417 0
1930 H 66.3 4.75 64.22 H 17 C417 0
1931 H 66.25 5.42 65.62 H 17 C417 0
1932 C 61.98 4.87 61.65 C.3 17 C417 0
1933 C 62.95 3.99 62.16 C.3 17 C417 0
1934 H 61.41 4.39 61.05 H 17 C417 0
1935 H 63.54 3.73 61.46 H 17 C417 0
1936 H 62.52 3.22 62.52 H 17 C417 0
1937 C1 63.74 4.7 63.27 C.3 17 C417 0
1938 O2 63.95 4.13 64.34 O.3 17 C417 0
1939 O3 64.22 5.96 63.07 O.3 17 C417 0
1940 C 62.67 6.02 60.9 C.3 17 C417 0
1941 H 62.01 6.61 60.56 H 17 C417 0
1942 H 63.23 6.49 61.5 H 17 C417 0
1943 H 63.19 5.67 60.19 H 17 C417 0
1944 C 58.91 6.66 64.07 C.3 17 C417 0
1945 C 59.88 7.47 63.47 C.3 17 C417 0
1946 H 58.34 7.2 64.62 H 17 C417 0
1947 H 60.47 7.81 64.14 H 17 C417 0
1948 H 59.46 8.2 63.03 H 17 C417 0
1949 C1 60.68 6.65 62.45 C.3 17 C417 0
1950 O2 60.88 7.1 61.32 O.3 17 C417 0
1951 O3 61.15 5.42 62.79 O.3 17 C417 0
1952 C 59.6 5.6 64.94 C.3 17 C417 0
1953 H 58.94 5.05 65.35 H 17 C417 0
1954 H 60.17 5.06 64.4 H 17 C417 0
1955 H 60.12 6.02 65.62 H 17 C417 0
1956 C 55.84 4.61 61.86 C.3 17 C417 0
1957 C 56.81 3.87 62.55 C.3 17 C417 0
1958 H 55.27 4.02 61.38 H 17 C417 0
1959 H 57.4 3.46 61.93 H 17 C417 0
1960 H 56.39 3.2 63.07 H 17 C417 0
1961 C1 57.61 4.8 63.48 C.3 17 C417 0
1962 O2 57.81 4.48 64.65 O.3 17 C417 0
1963 O3 58.09 5.99 63 O.3 17 C417 0
1964 C 56.53 5.57 60.88 C.3 17 C417 0
1965 H 55.87 6.08 60.42 H 17 C417 0
1966 H 57.1 6.16 61.36 H 17 C417 0
1967 H 57.05 5.08 60.26 H 17 C417 0
1968 C 52.77 6.9 63.83 C.3 17 C417 0
1969 C 53.74 7.56 63.07 C.3 17 C417 0
1970 H 52.21 7.54 64.25 H 17 C417 0
1971 H 54.33 8.03 63.64 H 17 C417 0
1972 H 53.32 8.17 62.48 H 17 C417 0
1973 C1 54.54 6.52 62.25 C.3 17 C417 0
1974 O2 54.75 6.71 61.05 O.3 17 C417 0
1975 O3 55.02 5.4 62.85 O.3 17 C417 0
1976 C 53.46 6.05 64.92 C.3 17 C417 0
1977 H 52.81 5.6 65.43 H 17 C417 0
1978 H 54.03 5.41 64.5 H 17 C417 0
1979 H 53.98 6.61 65.48 H 17 C417 0
1980 C 49.71 4.41 62.13 C.3 17 C417 0
1981 C 50.68 3.83 62.96 C.3 17 C417 0
1982 H 49.14 3.72 61.79 H 17 C417 0
1983 H 51.27 3.3 62.44 H 17 C417 0
1984 H 50.25 3.29 63.62 H 17 C417 0
1985 C1 51.47 4.95 63.66 C.3 17 C417 0
1986 O2 51.68 4.9 64.87 O.3 17 C417 0
1987 O3 51.95 6 62.94 O.3 17 C417 0
1988 C 50.4 5.13 60.96 C.3 17 C417 0
1989 H 49.74 5.52 60.39 H 17 C417 0
1990 H 50.96 5.81 61.3 H 17 C417 0
1991 H 50.91 4.51 60.46 H 17 C417 0
1992 C 46.64 7.07 63.55 C.3 17 C417 0
1993 C 47.61 7.55 62.66 C.3 17 C417 0
1994 H 46.07 7.79 63.81 H 17 C417 0
1995 H 48.2 8.13 63.11 H 17 C417 0
1996 H 47.19 8.01 61.95 H 17 C417 0
1997 C1 48.41 6.36 62.09 C.3 17 C417 0
1998 O2 48.61 6.28 60.88 O.3 17 C417 0
1999 O3 48.88 5.39 62.92 O.3 17 C417 0
2000 C 47.33 6.48 64.79 C.3 17 C417 0
2001 H 46.67 6.16 65.39 H 17 C417 0
2002 H 47.9 5.76 64.53 H 17 C417 0
2003 H 47.85 7.15 65.21 H 17 C417 0
2004 C 43.57 4.27 62.43 C.3 17 C417 0
2005 C 44.54 3.89 63.37 C.3 17 C417 0
2006 H 43.01 3.52 62.25 H 17 C417 0
2007 H 45.13 3.26 62.98 H 17 C417 0
2008 H 44.12 3.51 64.13 H 17 C417 0
2009 C1 45.34 5.14 63.81 C.3 17 C417 0
2010 O2 45.54 5.35 65 O.3 17 C417 0
2011 O3 45.82 6 62.87 O.3 17 C417 0
2012 C 44.26 4.72 61.13 C.3 17 C417 0
2013 H 43.6 4.97 60.5 H 17 C417 0
2014 H 44.83 5.46 61.31 H 17 C417 0
2015 H 44.78 4 60.78 H 17 C417 0
2016 C 40.5 7.18 63.23 C.3 17 C417 0
2017 C 41.47 7.44 62.26 C.3 17 C417 0
2018 H 39.94 7.93 63.33 H 17 C417 0
2019 H 42.06 8.12 62.57 H 17 C417 0
2020 H 41.05 7.74 61.46 H 17 C417 0
2021 C1 42.27 6.16 61.96 C.3 17 C417 0
2022 O2 42.48 5.82 60.8 O.3 17 C417 0
2023 O3 42.75 5.4 62.99 O.3 17 C417 0
2024 C 41.19 6.87 64.57 C.3 17 C417 0
2025 H 40.54 6.69 65.23 H 17 C417 0
2026 H 41.76 6.12 64.47 H 17 C417 0
2027 H 41.71 7.62 64.84 H 17 C417 0
2028 C 37.44 4.2 62.76 C.3 17 C417 0
2029 C 38.41 4.04 63.76 C.3 17 C417 0
2030 H 36.87 3.43 62.75 H 17 C417 0
2031 H 39 3.33 63.52 H 17 C417 0
2032 H 37.98 3.83 64.58 H 17 C417 0
2033 C1 39.2 5.35 63.91 C.3 17 C417 0
2034 O2 39.41 5.82 65.03 O.3 17 C417 0
2035 O3 39.68 5.99 62.81 O.3 17 C417 0
2036 C 38.13 4.35 61.39 C.3 17 C417 0
2037 H 37.47 4.46 60.72 H 17 C417 0
2038 H 38.69 5.11 61.41 H 17 C417 0
2039 H 38.64 3.57 61.21 H 17 C417 0
2040 C 34.37 7.21 62.9 C.3 17 C417 0
2041 C 35.34 7.26 61.89 C.3 17 C417 0
2042 H 33.8 7.97 62.83 H 17 C417 0
2043 H 35.93 7.98 62.05 H 17 C417 0
2044 H 34.91 7.37 61.05 H 17 C417 0
2045 C1 36.14 5.94 61.88 C.3 17 C417 0
2046 O2 36.34 5.35 60.82 O.3 17 C417 0
2047 O3 36.61 5.43 63.05 O.3 17 C417 0
2048 C 35.06 7.21 64.27 C.3 17 C417 0
2049 H 34.4 7.18 64.96 H 17 C417 0
2050 H 35.62 6.45 64.34 H 17 C417 0
2051 H 35.58 8 64.37 H 17 C417 0
2052 C 31.3 4.2 63.1 C.3 17 C417 0
2053 C 32.27 4.27 64.1 C.3 17 C417 0
2054 H 30.73 3.45 63.25 H 17 C417 0
2055 H 32.86 3.52 64.02 H 17 C417 0
2056 H 31.85 4.24 64.95 H 17 C417 0
2057 C1 33.07 5.58 63.96 C.3 17 C417 0
2058 O2 33.27 6.28 64.95 O.3 17 C417 0
2059 O3 33.54 5.95 62.75 O.3 17 C417 0
2060 C 31.99 4.05 61.73 C.3 17 C417 0
2061 H 31.33 4 61.04 H 17 C417 0
2062 H 32.56 4.8 61.57 H 17 C417 0
2063 H 32.51 3.25 61.72 H 17 C417 0
2064 C 28.23 7.17 62.57 C.3 17 C417 0
2065 C 29.2 7 61.57 C.3 17 C417 0
2066 H 27.67 7.9 62.33 H 17 C417 0
2067 H 29.79 7.74 61.57 H 17 C417 0
2068 H 28.78 6.92 60.73 H 17 C417 0
2069 C1 30 5.71 61.86 C.3 17 C417 0
2070 O2 30.21 4.9 60.95 O.3 17 C417 0
2071 O3 30.48 5.47 63.11 O.3 17 C417 0
2072 C 28.92 7.47 63.91 C.3 17 C417 0
2073 H 28.27 7.59 64.58 H 17 C417 0
2074 H 29.49 6.75 64.14 H 17 C417 0
2075 H 29.44 8.27 63.83 H 17 C417 0
2076 C 25.17 4.28 63.42 C.3 17 C417 0
2077 C 26.14 4.56 64.39 C.3 17 C417 0
2078 H 24.6 3.58 63.74 H 17 C417 0
2079 H 26.73 3.82 64.47 H 17 C417 0
2080 H 25.71 4.73 65.22 H 17 C417 0
2081 C1 26.93 5.81 63.96 C.3 17 C417 0
2082 O2 27.14 6.71 64.77 O.3 17 C417 0
2083 O3 27.41 5.91 62.7 O.3 17 C417 0
2084 C 25.86 3.83 62.12 C.3 17 C417 0
2085 H 25.2 3.64 61.46 H 17 C417 0
2086 H 26.42 4.52 61.81 H 17 C417 0
2087 H 26.37 3.05 62.29 H 17 C417 0
2088 C 22.1 7.06 62.25 C.3 17 C417 0
2089 C 23.07 6.67 61.32 C.3 17 C417 0
2090 H 21.53 7.72 61.86 H 17 C417 0
2091 H 23.66 7.39 61.15 H 17 C417 0
2092 H 22.64 6.41 60.51 H 17 C417 0
2093 C1 23.87 5.48 61.88 C.3 17 C417 0
2094 O2 24.07 4.49 61.18 O.3 17 C417 0
2095 O3 24.34 5.51 63.15 O.3 17 C417 0
2096 C 22.79 7.65 63.5 C.3 17 C417 0
2097 H 22.13 7.92 64.13 H 17 C417 0
2098 H 23.35 6.99 63.88 H 17 C417 0
2099 H 23.31 8.41 63.24 H 17 C417 0
2100 C 19.03 4.42 63.72 C.3 17 C417 0
2101 C 20 4.92 64.6 C.3 17 C417 0
2102 H 18.46 3.82 64.18 H 17 C417 0
2103 H 20.59 4.21 64.85 H 17 C417 0
2104 H 19.58 5.26 65.38 H 17 C417 0
2105 C1 20.8 6.04 63.91 C.3 17 C417 0
2106 O2 21 7.1 64.51 O.3 17 C417 0
2107 O3 21.27 5.86 62.65 O.3 17 C417 0
2108 C 19.72 3.7 62.55 C.3 17 C417 0
2109 H 19.06 3.37 61.95 H 17 C417 0
2110 H 20.29 4.31 62.09 H 17 C417 0
2111 H 20.24 2.98 62.89 H 17 C417 0
2112 C 15.96 6.88 61.97 C.3 17 C417 0
2113 C 16.93 6.3 61.15 C.3 17 C417 0
2114 H 15.4 7.44 61.45 H 17 C417 0
2115 H 17.52 6.97 60.83 H 17 C417 0
2116 H 16.51 5.87 60.41 H 17 C417 0
2117 C1 17.73 5.26 61.96 C.3 17 C417 0
2118 O2 17.94 4.14 61.49 O.3 17 C417 0
2119 O3 18.21 5.57 63.19 O.3 17 C417 0
2120 C 16.65 7.73 63.05 C.3 17 C417 0
2121 H 16 8.13 63.61 H 17 C417 0
2122 H 17.22 7.18 63.58 H 17 C417 0
2123 H 17.17 8.41 62.64 H 17 C417 0
2124 C 12.89 4.63 63.98 C.3 17 C417 0
2125 C 13.87 5.31 64.74 C.3 17 C417 0
2126 H 12.33 4.14 64.56 H 17 C417 0
2127 H 14.45 4.68 65.13 H 17 C417 0
2128 H 13.44 5.81 65.42 H 17 C417 0
2129 C1 14.66 6.25 63.82 C.3 17 C417 0
2130 O2 14.87 7.42 64.16 O.3 17 C417 0
2131 O3 15.14 5.8 62.63 O.3 17 C417 0
2132 C 13.59 3.67 63 C.3 17 C417 0
2133 H 12.93 3.21 62.49 H 17 C417 0
2134 H 14.15 4.16 62.42 H 17 C417 0
2135 H 14.1 3.04 63.49 H 17 C417 0
2136 C 9.83 6.65 61.73 C.3 17 C417 0
2137 C 10.8 5.89 61.06 C.3 17 C417 0
2138 H 9.26 7.07 61.1 H 17 C417 0
2139 H 11.39 6.48 60.6 H 17 C417 0
2140 H 10.37 5.31 60.44 H 17 C417 0
2141 C1 11.59 5.06 62.08 C.3 17 C417 0
2142 O2 11.8 3.86 61.86 O.3 17 C417 0
2143 O3 12.07 5.64 63.21 O.3 17 C417 0
2144 C 10.52 7.71 62.6 C.3 17 C417 0
2145 H 9.86 8.22 63.06 H 17 C417 0
2146 H 11.08 7.29 63.24 H 17 C417 0
2147 H 11.04 8.29 62.05 H 17 C417 0
2148 C 6.76 4.9 64.19 C.3 17 C417 0
2149 C 7.73 5.72 64.78 C.3 17 C417 0
2150 H 6.19 4.54 64.87 H 17 C417 0
2151 H 8.32 5.19 65.3 H 17 C417 0
2152 H 7.31 6.36 65.33 H 17 C417 0
2153 C1 8.53 6.44 63.67 C.3 17 C417 0
2154 O2 8.73 7.65 63.75 O.3 17 C417 0
2155 O3 9 5.74 62.61 O.3 17 C417 0
2156 C 7.45 3.74 63.44 C.3 17 C417 0
2157 H 6.79 3.18 63.05 H 17 C417 0
2158 H 8.02 4.09 62.77 H 17 C417 0
2159 H 7.97 3.23 64.06 H 17 C417 0
2160 H 3.17 5.93 62.22 H 18 C418 0
2161 C 3.69 6.36 61.55 C.3 18 C418 0
2162 C 4.66 5.48 61.06 C.3 18 C418 0
2163 H 3.13 6.64 60.84 H 18 C418 0
2164 H 5.25 5.95 60.49 H 18 C418 0
2165 H 4.24 4.78 60.58 H 18 C418 0
2166 C1 5.46 4.89 62.24 C.3 18 C418 0
2167 O2 5.67 3.68 62.3 O.3 18 C418 0
2168 O3 5.94 5.7 63.22 O.3 18 C418 0
2169 C 4.38 7.6 62.17 C.3 18 C418 0
2170 H 3.72 8.19 62.5 H 18 C418 0
2171 H 4.95 7.32 62.88 H 18 C418 0
2172 H 4.9 8.03 61.5 H 18 C418 0
2173 C 92.65 6.45 73.03 C.3 19 C419 0
2174 C 93.62 5.61 72.48 C.3 19 C419 0
2175 H 92.09 6.78 72.34 H 19 C419 0
2176 H 94.21 6.12 71.94 H 19 C419 0
2177 H 93.2 4.94 71.95 H 19 C419 0
2178 C1 94.42 4.93 73.61 C.3 19 C419 0
2179 O2 94.63 3.72 73.58 O.3 19 C419 0
2180 O3 94.9 5.67 74.64 O.3 19 C419 0
2181 H5 95.42 5.12 75.22 H 19 C419 0
2182 C 93.34 7.63 73.74 C.3 19 C419 0
2183 H 92.68 8.21 74.11 H 19 C419 0
2184 H 93.91 7.31 74.42 H 19 C419 0
2185 H 93.86 8.12 73.1 H 19 C419 0
2186 C 89.58 5.09 75.72 C.3 20 C420 0
2187 C 90.55 5.99 76.18 C.3 20 C420 0
2188 H 89.02 4.84 76.44 H 20 C420 0
2189 H 91.15 5.54 76.78 H 20 C420 0
2190 H 90.13 6.71 76.63 H 20 C420 0
2191 C1 91.35 6.53 74.98 C.3 20 C420 0
2192 O2 91.56 7.74 74.88 O.3 20 C420 0
2193 O3 91.83 5.68 74.04 O.3 20 C420 0
2194 C 90.28 3.83 75.16 C.3 20 C420 0
2195 H 89.62 3.22 74.85 H 20 C420 0
2196 H 90.84 4.08 74.44 H 20 C420 0
2197 H 90.79 3.42 75.84 H 20 C420 0
2198 C 86.52 6.15 72.9 C.3 20 C420 0
2199 C 87.49 5.2 72.54 C.3 20 C420 0
2200 H 85.95 6.31 72.15 H 20 C420 0
2201 H 88.08 5.58 71.9 H 20 C420 0
2202 H 87.06 4.44 72.17 H 20 C420 0
2203 C1 88.28 4.79 73.8 C.3 20 C420 0
2204 O2 88.49 3.6 74.03 O.3 20 C420 0
2205 O3 88.76 5.74 74.64 O.3 20 C420 0
2206 C 87.21 7.46 73.32 C.3 20 C420 0
2207 H 86.55 8.1 73.56 H 20 C420 0
2208 H 87.77 7.29 74.07 H 20 C420 0
2209 H 87.73 7.79 72.6 H 20 C420 0
2210 C 83.45 5.41 75.82 C.3 20 C420 0
2211 C 84.42 6.38 76.07 C.3 20 C420 0
2212 H 82.88 5.32 76.58 H 20 C420 0
2213 H 85.01 6.08 76.75 H 20 C420 0
2214 H 84 7.19 76.36 H 20 C420 0
2215 C1 85.22 6.66 74.78 C.3 20 C420 0
2216 O2 85.42 7.81 74.42 O.3 20 C420 0
2217 O3 85.69 5.62 74.05 O.3 20 C420 0
2218 C 84.14 4.06 75.55 C.3 20 C420 0
2219 H 83.48 3.39 75.38 H 20 C420 0
2220 H 84.71 4.14 74.79 H 20 C420 0
2221 H 84.66 3.81 76.3 H 20 C420 0
2222 C 80.38 5.82 72.83 C.3 20 C420 0
2223 C 81.35 4.82 72.7 C.3 20 C420 0
2224 H 79.82 5.82 72.07 H 20 C420 0
2225 H 81.94 5.05 71.99 H 20 C420 0
2226 H 80.93 3.99 72.5 H 20 C420 0
2227 C1 82.15 4.69 74.01 C.3 20 C420 0
2228 O2 82.36 3.58 74.5 O.3 20 C420 0
2229 O3 82.63 5.81 74.62 O.3 20 C420 0
2230 C 81.07 7.19 72.96 C.3 20 C420 0
2231 H 80.41 7.87 73.06 H 20 C420 0
2232 H 81.64 7.19 73.72 H 20 C420 0
2233 H 81.59 7.36 72.18 H 20 C420 0
2234 C 77.31 5.74 75.85 C.3 20 C420 0
2235 C 78.28 6.75 75.88 C.3 20 C420 0
2236 H 76.75 5.82 76.61 H 20 C420 0
2237 H 78.88 6.6 76.61 H 20 C420 0
2238 H 77.86 7.59 75.98 H 20 C420 0
2239 C1 79.08 6.73 74.56 C.3 20 C420 0
2240 O2 79.29 7.78 73.95 O.3 20 C420 0
2241 O3 79.56 5.55 74.07 O.3 20 C420 0
2242 C 78.01 4.36 75.88 C.3 20 C420 0
2243 H 77.35 3.68 75.86 H 20 C420 0
2244 H 78.57 4.28 75.12 H 20 C420 0
2245 H 78.52 4.28 76.67 H 20 C420 0
2246 C 74.25 5.49 72.84 C.3 20 C420 0
2247 C 75.22 4.48 72.93 C.3 20 C420 0
2248 H 73.68 5.32 72.1 H 20 C420 0
2249 H 75.81 4.54 72.19 H 20 C420 0
2250 H 74.79 3.63 72.92 H 20 C420 0
2251 C1 76.01 4.64 74.24 C.3 20 C420 0
2252 O2 76.22 3.67 74.96 O.3 20 C420 0
2253 O3 76.49 5.87 74.59 O.3 20 C420 0
2254 C 74.94 6.85 72.67 C.3 20 C420 0
2255 H 74.28 7.53 72.61 H 20 C420 0
2256 H 75.5 7.02 73.41 H 20 C420 0
2257 H 75.46 6.84 71.87 H 20 C420 0
2258 C 71.18 6.07 75.81 C.3 20 C420 0
2259 C 72.15 7.06 75.61 C.3 20 C420 0
2260 H 70.61 6.32 76.53 H 20 C420 0
2261 H 72.74 7.08 76.35 H 20 C420 0
2262 H 71.73 7.91 75.52 H 20 C420 0
2263 C1 72.95 6.75 74.33 C.3 20 C420 0
2264 O2 73.15 7.64 73.5 O.3 20 C420 0
2265 O3 73.42 5.5 74.11 O.3 20 C420 0
2266 C 71.87 4.73 76.13 C.3 20 C420 0
2267 H 71.21 4.06 76.27 H 20 C420 0
2268 H 72.44 4.49 75.41 H 20 C420 0
2269 H 72.39 4.83 76.92 H 20 C420 0
2270 C 68.11 5.16 72.93 C.3 20 C420 0
2271 C 69.08 4.2 73.23 C.3 20 C420 0
2272 H 67.55 4.83 72.24 H 20 C420 0
2273 H 69.67 4.1 72.49 H 20 C420 0
2274 H 68.66 3.37 73.41 H 20 C420 0
2275 C1 69.88 4.65 74.47 C.3 20 C420 0
2276 O2 70.09 3.86 75.39 O.3 20 C420 0
2277 O3 70.36 5.92 74.55 O.3 20 C420 0
2278 C 68.8 6.45 72.45 C.3 20 C420 0
2279 H 68.14 7.11 72.25 H 20 C420 0
2280 H 69.37 6.78 73.14 H 20 C420 0
2281 H 69.32 6.27 71.68 H 20 C420 0
2282 C 65.04 6.38 75.69 C.3 20 C420 0
2283 C 66.01 7.31 75.28 C.3 20 C420 0
2284 H 64.48 6.79 76.34 H 20 C420 0
2285 H 66.6 7.49 76 H 20 C420 0
2286 H 65.59 8.11 75.01 H 20 C420 0
2287 C1 66.81 6.73 74.1 C.3 20 C420 0
2288 O2 67.02 7.41 73.1 O.3 20 C420 0
2289 O3 67.29 5.45 74.16 O.3 20 C420 0
2290 C 65.74 5.15 76.3 C.3 20 C420 0
2291 H 65.08 4.53 76.58 H 20 C420 0
2292 H 66.3 4.75 75.65 H 20 C420 0
2293 H 66.25 5.42 77.05 H 20 C420 0
2294 C 61.98 4.87 73.08 C.3 20 C420 0
2295 C 62.95 3.99 73.59 C.3 20 C420 0
2296 H 61.41 4.39 72.48 H 20 C420 0
2297 H 63.54 3.73 72.89 H 20 C420 0
2298 H 62.52 3.22 73.95 H 20 C420 0
2299 C1 63.74 4.7 74.7 C.3 20 C420 0
2300 O2 63.95 4.13 75.77 O.3 20 C420 0
2301 O3 64.22 5.96 74.5 O.3 20 C420 0
2302 C 62.67 6.02 72.33 C.3 20 C420 0
2303 H 62.01 6.61 71.99 H 20 C420 0
2304 H 63.23 6.49 72.93 H 20 C420 0
2305 H 63.19 5.67 71.62 H 20 C420 0
2306 C 58.91 6.66 75.5 C.3 20 C420 0
2307 C 59.88 7.47 74.9 C.3 20 C420 0
2308 H 58.34 7.2 76.05 H 20 C420 0
2309 H 60.47 7.81 75.57 H 20 C420 0
2310 H 59.46 8.2 74.46 H 20 C420 0
2311 C1 60.68 6.65 73.88 C.3 20 C420 0
2312 O2 60.88 7.1 72.75 O.3 20 C420 0
2313 O3 61.15 5.42 74.22 O.3 20 C420 0
2314 C 59.6 5.6 76.37 C.3 20 C420 0
2315 H 58.94 5.05 76.78 H 20 C420 0
2316 H 60.17 5.06 75.83 H 20 C420 0
2317 H 60.12 6.02 77.05 H 20 C420 0
2318 C 55.84 4.61 73.29 C.3 20 C420 0
2319 C 56.81 3.87 73.98 C.3 20 C420 0
2320 H 55.27 4.02 72.81 H 20 C420 0
2321 H 57.4 3.46 73.36 H 20 C420 0
2322 H 56.39 3.2 74.5 H 20 C420 0
2323 C1 57.61 4.8 74.91 C.3 20 C420 0
2324 O2 57.81 4.48 76.08 O.3 20 C420 0
2325 O3 58.09 5.99 74.43 O.3 20 C420 0
2326 C 56.53 5.57 72.31 C.3 20 C420 0
2327 H 55.87 6.08 71.85 H 20 C420 0
2328 H 57.1 6.16 72.79 H 20 C420 0
2329 H 57.05 5.08 71.69 H 20 C420 0
2330 C 52.77 6.9 75.26 C.3 20 C420 0
2331 C 53.74 7.56 74.5 C.3 20 C420 0
2332 H 52.21 7.54 75.68 H 20 C420 0
2333 H 54.33 8.03 75.07 H 20 C420 0
2334 H 53.32 8.17 73.91 H 20 C420 0
2335 C1 54.54 6.52 73.68 C.3 20 C420 0
2336 O2 54.75 6.71 72.48 O.3 20 C420 0
2337 O3 55.02 5.4 74.28 O.3 20 C420 0
2338 C 53.46 6.05 76.35 C.3 20 C420 0
2339 H 52.81 5.6 76.86 H 20 C420 0
2340 H 54.03 5.41 75.93 H 20 C420 0
2341 H 53.98 6.61 76.91 H 20 C420 0
2342 C 49.71 4.41 73.56 C.3 20 C420 0
2343 C 50.68 3.83 74.39 C.3 20 C420 0
2344 H 49.14 3.72 73.22 H 20 C420 0
2345 H 51.27 3.3 73.87 H 20 C420 0
2346 H 50.25 3.29 75.05 H 20 C420 0
2347 C1 51.47 4.95 75.09 C.3 20 C420 0
2348 O2 51.68 4.9 76.3 O.3 20 C420 0
2349 O3 51.95 6 74.37 O.3 20 C420 0
2350 C 50.4 5.13 72.39 C.3 20 C420 0
2351 H 49.74 5.52 71.82 H 20 C420 0
2352 H 50.96 5.81 72.73 H 20 C420 0
2353 H 50.91 4.51 71.89 H 20 C420 0
2354 C 46.64 7.07 74.98 C.3 20 C420 0
2355 C 47.61 7.55 74.09 C.3 20 C420 0
2356 H 46.07 7.79 75.24 H 20 C420 0
2357 H 48.2 8.13 74.54 H 20 C420 0
2358 H 47.19 8.01 73.38 H 20 C420 0
2359 C1 48.41 6.36 73.52 C.3 20 C420 0
2360 O2 48.61 6.28 72.31 O.3 20 C420 0
2361 O3 48.88 5.39 74.35 O.3 20 C420 0
2362 C 47.33 6.48 76.22 C.3 20 C420 0
2363 H 46.67 6.16 76.82 H 20 C420 0
2364 H 47.9 5.76 75.96 H 20 C420 0
2365 H 47.85 7.15 76.64 H 20 C420 0
2366 C 43.57 4.27 73.86 C.3 20 C420 0
2367 C 44.54 3.89 74.8 C.3 20 C420 0
2368 H 43.01 3.52 73.68 H 20 C420 0
2369 H 45.13 3.26 74.41 H 20 C420 0
2370 H 44.12 3.51 75.56 H 20 C420 0
2371 C1 45.34 5.14 75.24 C.3 20 C420 0
2372 O2 45.54 5.35 76.43 O.3 20 C420 0
2373 O3 45.82 6 74.3 O.3 20 C420 0
2374 C 44.26 4.72 72.56 C.3 20 C420 0
2375 H 43.6 4.97 71.93 H 20 C420 0
2376 H 44.83 5.46 72.74 H 20 C420 0
2377 H 44.78 4 72.21 H 20 C420 0
2378 C 40.5 7.18 74.66 C.3 20 C420 0
2379 C 41.47 7.44 73.69 C.3 20 C420 0
2380 H 39.94 7.93 74.76 H 20 C420 0
2381 H 42.06 8.12 74 H 20 C420 0
2382 H 41.05 7.74 72.89 H 20 C420 0
2383 C1 42.27 6.16 73.39 C.3 20 C420 0
2384 O2 42.48 5.82 72.23 O.3 20 C420 0
2385 O3 42.75 5.4 74.42 O.3 20 C420 0
2386 C 41.19 6.87 76 C.3 20 C420 0
2387 H 40.54 6.69 76.66 H 20 C420 0
2388 H 41.76 6.12 75.9 H 20 C420 0
2389 H 41.71 7.62 76.27 H 20 C420 0
2390 C 37.44 4.2 74.19 C.3 20 C420 0
2391 C 38.41 4.04 75.19 C.3 20 C420 0
2392 H 36.87 3.43 74.18 H 20 C420 0
2393 H 39 3.33 74.95 H 20 C420 0
2394 H 37.98 3.83 76.01 H 20 C420 0
2395 C1 39.2 5.35 75.34 C.3 20 C420 0
2396 O2 39.41 5.82 76.46 O.3 20 C420 0
2397 O3 39.68 5.99 74.24 O.3 20 C420 0
2398 C 38.13 4.35 72.82 C.3 20 C420 0
2399 H 37.47 4.46 72.15 H 20 C420 0
2400 H 38.69 5.11 72.84 H 20 C420 0
2401 H 38.64 3.57 72.64 H 20 C420 0
2402 C 34.37 7.21 74.33 C.3 20 C420 0
2403 C 35.34 7.26 73.32 C.3 20 C420 0
2404 H 33.8 7.97 74.26 H 20 C420 0
2405 H 35.93 7.98 73.48 H 20 C420 0
2406 H 34.91 7.37 72.48 H 20 C420 0
2407 C1 36.14 5.94 73.31 C.3 20 C420 0
2408 O2 36.34 5.35 72.25 O.3 20 C420 0
2409 O3 36.61 5.43 74.48 O.3 20 C420 0
2410 C 35.06 7.21 75.7 C.3 20 C420 0
2411 H 34.4 7.18 76.39 H 20 C420 0
2412 H 35.62 6.45 75.77 H 20 C420 0
2413 H 35.58 8 75.8 H 20 C420 0
2414 C 31.3 4.2 74.53 C.3 20 C420 0
2415 C 32.27 4.27 75.53 C.3 20 C420 0
2416 H 30.73 3.45 74.68 H 20 C420 0
2417 H 32.86 3.52 75.45 H 20 C420 0
2418 H 31.85 4.24 76.38 H 20 C420 0
2419 C1 33.07 5.58 75.39 C.3 20 C420 0
2420 O2 33.27 6.28 76.38 O.3 20 C420 0
2421 O3 33.54 5.95 74.18 O.3 20 C420 0
2422 C 31.99 4.05 73.16 C.3 20 C420 0
2423 H 31.33 4 72.47 H 20 C420 0
2424 H 32.56 4.8 73 H 20 C420 0
2425 H 32.51 3.25 73.15 H 20 C420 0
2426 C 28.23 7.17 74 C.3 20 C420 0
2427 C 29.2 7 73 C.3 20 C420 0
2428 H 27.67 7.9 73.76 H 20 C420 0
2429 H 29.79 7.74 73 H 20 C420 0
2430 H 28.78 6.92 72.16 H 20 C420 0
2431 C1 30 5.71 73.29 C.3 20 C420 0
2432 O2 30.21 4.9 72.38 O.3 20 C420 0
2433 O3 30.48 5.47 74.54 O.3 20 C420 0
2434 C 28.92 7.47 75.34 C.3 20 C420 0
2435 H 28.27 7.59 76.01 H 20 C420 0
2436 H 29.49 6.75 75.57 H 20 C420 0
2437 H 29.44 8.27 75.26 H 20 C420 0
2438 C 25.17 4.28 74.85 C.3 20 C420 0
2439 C 26.14 4.56 75.82 C.3 20 C420 0
2440 H 24.6 3.58 75.17 H 20 C420 0
2441 H 26.73 3.82 75.9 H 20 C420 0
2442 H 25.71 4.73 76.65 H 20 C420 0
2443 C1 26.93 5.81 75.39 C.3 20 C420 0
2444 O2 27.14 6.71 76.2 O.3 20 C420 0
2445 O3 27.41 5.91 74.13 O.3 20 C420 0
2446 C 25.86 3.83 73.55 C.3 20 C420 0
2447 H 25.2 3.64 72.89 H 20 C420 0
2448 H 26.42 4.52 73.24 H 20 C420 0
2449 H 26.37 3.05 73.72 H 20 C420 0
2450 C 22.1 7.06 73.68 C.3 20 C420 0
2451 C 23.07 6.67 72.75 C.3 20 C420 0
2452 H 21.53 7.72 73.29 H 20 C420 0
2453 H 23.66 7.39 72.58 H 20 C420 0
2454 H 22.64 6.41 71.94 H 20 C420 0
2455 C1 23.87 5.48 73.31 C.3 20 C420 0
2456 O2 24.07 4.49 72.61 O.3 20 C420 0
2457 O3 24.34 5.51 74.58 O.3 20 C420 0
2458 C 22.79 7.65 74.93 C.3 20 C420 0
2459 H 22.13 7.92 75.56 H 20 C420 0
2460 H 23.35 6.99 75.31 H 20 C420 0
2461 H 23.31 8.41 74.67 H 20 C420 0
2462 C 19.03 4.42 75.15 C.3 20 C420 0
2463 C 20 4.92 76.03 C.3 20 C420 0
2464 H 18.46 3.82 75.61 H 20 C420 0
2465 H 20.59 4.21 76.28 H 20 C420 0
2466 H 19.58 5.26 76.81 H 20 C420 0
2467 C1 20.8 6.04 75.34 C.3 20 C420 0
2468 O2 21 7.1 75.94 O.3 20 C420 0
2469 O3 21.27 5.86 74.08 O.3 20 C420 0
2470 C 19.72 3.7 73.98 C.3 20 C420 0
2471 H 19.06 3.37 73.38 H 20 C420 0
2472 H 20.29 4.31 73.52 H 20 C420 0
2473 H 20.24 2.98 74.32 H 20 C420 0
2474 C 15.96 6.88 73.4 C.3 20 C420 0
2475 C 16.93 6.3 72.58 C.3 20 C420 0
2476 H 15.4 7.44 72.88 H 20 C420 0
2477 H 17.52 6.97 72.26 H 20 C420 0
2478 H 16.51 5.87 71.84 H 20 C420 0
2479 C1 17.73 5.26 73.39 C.3 20 C420 0
2480 O2 17.94 4.14 72.92 O.3 20 C420 0
2481 O3 18.21 5.57 74.62 O.3 20 C420 0
2482 C 16.65 7.73 74.48 C.3 20 C420 0
2483 H 16 8.13 75.04 H 20 C420 0
2484 H 17.22 7.18 75.01 H 20 C420 0
2485 H 17.17 8.41 74.07 H 20 C420 0
2486 C 12.89 4.63 75.41 C.3 20 C420 0
2487 C 13.87 5.31 76.17 C.3 20 C420 0
2488 H 12.33 4.14 75.99 H 20 C420 0
2489 H 14.45 4.68 76.56 H 20 C420 0
2490 H 13.44 5.81 76.85 H 20 C420 0
2491 C1 14.66 6.25 75.25 C.3 20 C420 0
2492 O2 14.87 7.42 75.59 O.3 20 C420 0
2493 O3 15.14 5.8 74.06 O.3 20 C420 0
2494 C 13.59 3.67 74.43 C.3 20 C420 0
2495 H 12.93 3.21 73.92 H 20 C420 0
2496 H 14.15 4.16 73.85 H 20 C420 0
2497 H 14.1 3.04 74.92 H 20 C420 0
2498 C 9.83 6.65 73.16 C.3 20 C420 0
2499 C 10.8 5.89 72.49 C.3 20 C420 0
2500 H 9.26 7.07 72.53 H 20 C420 0
2501 H 11.39 6.48 72.03 H 20 C420 0
2502 H 10.37 5.31 71.87 H 20 C420 0
2503 C1 11.59 5.06 73.51 C.3 20 C420 0
2504 O2 11.8 3.86 73.29 O.3 20 C420 0
2505 O3 12.07 5.64 74.64 O.3 20 C420 0
2506 C 10.52 7.71 74.03 C.3 20 C420 0
2507 H 9.86 8.22 74.49 H 20 C420 0
2508 H 11.08 7.29 74.67 H 20 C420 0
2509 H 11.04 8.29 73.48 H 20 C420 0
2510 C 6.76 4.9 75.62 C.3 20 C420 0
2511 C 7.73 5.72 76.21 C.3 20 C420 0
2512 H 6.19 4.54 76.3 H 20 C420 0
2513 H 8.32 5.19 76.73 H 20 C420 0
2514 H 7.31 6.36 76.76 H 20 C420 0
2515 C1 8.53 6.44 75.1 C.3 20 C420 0
2516 O2 8.73 7.65 75.18 O.3 20 C420 0
2517 O3 9 5.74 74.04 O.3 20 C420 0
2518 C 7.45 3.74 74.87 C.3 20 C420 0
2519 H 6.79 3.18 74.48 H 20 C420 0
2520 H 8.02 4.09 74.2 H 20 C420 0
2521 H 7.97 3.23 75.49 H 20 C420 0
2522 H 3.17 5.93 73.65 H 21 C421 0
2523 C 3.69 6.36 72.98 C.3 21 C421 0
2524 C 4.66 5.48 72.49 C.3 21 C421 0
2525 H 3.13 6.64 72.27 H 21 C421 0
2526 H 5.25 5.95 71.92 H 21 C421 0
2527 H 4.24 4.78 72.01 H 21 C421 0
2528 C1 5.46 4.89 73.67 C.3 21 C421 0
2529 O2 5.67 3.68 73.73 O.3 21 C421 0
2530 O3 5.94 5.7 74.65 O.3 21 C421 0
2531 C 4.38 7.6 73.6 C.3 21 C421 0
2532 H 3.72 8.19 73.93 H 21 C421 0
2533 H 4.95 7.32 74.31 H 21 C421 0
2534 H 4.9 8.03 72.93 H 21 C421 0
2535 C 92.65 6.45 84.46 C.3 22 C422 0
2536 C 93.62 5.61 83.91 C.3 22 C422 0
2537 H 92.09 6.78 83.77 H 22 C422 0
2538 H 94.21 6.12 83.37 H 22 C422 0
2539 H 93.2 4.94 83.38 H 22 C422 0
2540 C1 94.42 4.93 85.04 C.3 22 C422 0
2541 O2 94.63 3.72 85.01 O.3 22 C422 0
2542 O3 94.9 5.67 86.07 O.3 22 C422 0
2543 H5 95.42 5.12 86.65 H 22 C422 0
2544 C 93.34 7.63 85.17 C.3 22 C422 0
2545 H 92.68 8.21 85.54 H 22 C422 0
2546 H 93.91 7.31 85.85 H 22 C422 0
2547 H 93.86 8.12 84.53 H 22 C422 0
2548 C 89.58 5.09 87.15 C.3 23 C423 0
2549 C 90.55 5.99 87.61 C.3 23 C423 0
2550 H 89.02 4.84 87.87 H 23 C423 0
2551 H 91.15 5.54 88.21 H 23 C423 0
2552 H 90.13 6.71 88.06 H 23 C423 0
2553 C1 91.35 6.53 86.41 C.3 23 C423 0
2554 O2 91.56 7.74 86.31 O.3 23 C423 0
2555 O3 91.83 5.68 85.47 O.3 23 C423 0
2556 C 90.28 3.83 86.59 C.3 23 C423 0
2557 H 89.62 3.22 86.28 H 23 C423 0
2558 H 90.84 4.08 85.87 H 23 C423 0
2559 H 90.79 3.42 87.27 H 23 C423 0
2560 C 86.52 6.15 84.33 C.3 23 C423 0
2561 C 87.49 5.2 83.97 C.3 23 C423 0
2562 H 85.95 6.31 83.58 H 23 C423 0
2563 H 88.08 5.58 83.33 H 23 C423 0
2564 H 87.06 4.44 83.6 H 23 C423 0
2565 C1 88.28 4.79 85.23 C.3 23 C423 0
2566 O2 88.49 3.6 85.46 O.3 23 C423 0
2567 O3 88.76 5.74 86.07 O.3 23 C423 0
2568 C 87.21 7.46 84.75 C.3 23 C423 0
2569 H 86.55 8.1 84.99 H 23 C423 0
2570 H 87.77 7.29 85.5 H 23 C423 0
2571 H 87.73 7.79 84.03 H 23 C423 0
2572 C 83.45 5.41 87.25 C.3 23 C423 0
2573 C 84.42 6.38 87.5 C.3 23 C423 0
2574 H 82.88 5.32 88.01 H 23 C423 0
2575 H 85.01 6.08 88.18 H 23 C423 0
2576 H 84 7.19 87.79 H 23 C423 0
2577 C1 85.22 6.66 86.21 C.3 23 C423 0
2578 O2 85.42 7.81 85.85 O.3 23 C423 0
2579 O3 85.69 5.62 85.48 O.3 23 C423 0
2580 C 84.14 4.06 86.98 C.3 23 C423 0
2581 H 83.48 3.39 86.81 H 23 C423 0
2582 H 84.71 4.14 86.22 H 23 C423 0
2583 H 84.66 3.81 87.73 H 23 C423 0
2584 C 80.38 5.82 84.26 C.3 23 C423 0
2585 C 81.35 4.82 84.13 C.3 23 C423 0
2586 H 79.82 5.82 83.5 H 23 C423 0
2587 H 81.94 5.05 83.42 H 23 C423 0
2588 H 80.93 3.99 83.93 H 23 C423 0
2589 C1 82.15 4.69 85.44 C.3 23 C423 0
2590 O2 82.36 3.58 85.93 O.3 23 C423 0
2591 O3 82.63 5.81 86.05 O.3 23 C423 0
2592 C 81.07 7.19 84.39 C.3 23 C423 0
2593 H 80.41 7.87 84.49 H 23 C423 0
2594 H 81.64 7.19 85.15 H 23 C423 0
2595 H 81.59 7.36 83.61 H 23 C423 0
2596 C 77.31 5.74 87.28 C.3 23 C423 0
2597 C 78.28 6.75 87.31 C.3 23 C423 0
2598 H 76.75 5.82 88.04 H 23 C423 0
2599 H 78.88 6.6 88.04 H 23 C423 0
2600 H 77.86 7.59 87.41 H 23 C423 0
2601 C1 79.08 6.73 85.99 C.3 23 C423 0
2602 O2 79.29 7.78 85.38 O.3 23 C423 0
2603 O3 79.56 5.55 85.5 O.3 23 C423 0
2604 C 78.01 4.36 87.31 C.3 23 C423 0
2605 H 77.35 3.68 87.29 H 23 C423 0
2606 H 78.57 4.28 86.55 H 23 C423 0
2607 H 78.52 4.28 88.1 H 23 C423 0
2608 C 74.25 5.49 84.27 C.3 23 C423 0
2609 C 75.22 4.48 84.36 C.3 23 C423 0
2610 H 73.68 5.32 83.53 H 23 C423 0
2611 H 75.81 4.54 83.62 H 23 C423 0
2612 H 74.79 3.63 84.35 H 23 C423 0
2613 C1 76.01 4.64 85.67 C.3 23 C423 0
2614 O2 76.22 3.67 86.39 O.3 23 C423 0
2615 O3 76.49 5.87 86.02 O.3 23 C423 0
2616 C 74.94 6.85 84.1 C.3 23 C423 0
2617 H 74.28 7.53 84.04 H 23 C423 0
2618 H 75.5 7.02 84.84 H 23 C423 0
2619 H 75.46 6.84 83.3 H 23 C423 0
2620 C 71.18 6.07 87.24 C.3 23 C423 0
2621 C 72.15 7.06 87.04 C.3 23 C423 0
2622 H 70.61 6.32 87.96 H 23 C423 0
2623 H 72.74 7.08 87.78 H 23 C423 0
2624 H 71.73 7.91 86.95 H 23 C423 0
2625 C1 72.95 6.75 85.76 C.3 23 C423 0
2626 O2 73.15 7.64 84.93 O.3 23 C423 0
2627 O3 73.42 5.5 85.54 O.3 23 C423 0
2628 C 71.87 4.73 87.56 C.3 23 C423 0
2629 H 71.21 4.06 87.7 H 23 C423 0
2630 H 72.44 4.49 86.84 H 23 C423 0
2631 H 72.39 4.83 88.35 H 23 C423 0
2632 C 68.11 5.16 84.36 C.3 23 C423 0
2633 C 69.08 4.2 84.66 C.3 23 C423 0
2634 H 67.55 4.83 83.67 H 23 C423 0
2635 H 69.67 4.1 83.92 H 23 C423 0
2636 H 68.66 3.37 84.84 H 23 C423 0
2637 C1 69.88 4.65 85.9 C.3 23 C423 0
2638 O2 70.09 3.86 86.82 O.3 23 C423 0
2639 O3 70.36 5.92 85.98 O.3 23 C423 0
2640 C 68.8 6.45 83.88 C.3 23 C423 0
2641 H 68.14 7.11 83.68 H 23 C423 0
2642 H 69.37 6.78 84.57 H 23 C423 0
2643 H 69.32 6.27 83.11 H 23 C423 0
2644 C 65.04 6.38 87.12 C.3 23 C423 0
2645 C 66.01 7.31 86.71 C.3 23 C423 0
2646 H 64.48 6.79 87.77 H 23 C423 0
2647 H 66.6 7.49 87.43 H 23 C423 0
2648 H 65.59 8.11 86.44 H 23 C423 0
2649 C1 66.81 6.73 85.53 C.3 23 C423 0
2650 O2 67.02 7.41 84.53 O.3 23 C423 0
2651 O3 67.29 5.45 85.59 O.3 23 C423 0
2652 C 65.74 5.15 87.73 C.3 23 C423 0
2653 H 65.08 4.53 88.01 H 23 C423 0
2654 H 66.3 4.75 87.08 H 23 C423 0
2655 H 66.25 5.42 88.48 H 23 C423 0
2656 C 61.98 4.87 84.51 C.3 23 C423 0
2657 C 62.95 3.99 85.02 C.3 23 C423 0
2658 H 61.41 4.39 83.91 H 23 C423 0
2659 H 63.54 3.73 84.32 H 23 C423 0
2660 H 62.52 3.22 85.38 H 23 C423 0
2661 C1 63.74 4.7 86.13 C.3 23 C423 0
2662 O2 63.95 4.13 87.2 O.3 23 C423 0
2663 O3 64.22 5.96 85.93 O.3 23 C423 0
2664 C 62.67 6.02 83.76 C.3 23 C423 0
2665 H 62.01 6.61 83.42 H 23 C423 0
2666 H 63.23 6.49 84.36 H 23 C423 0
2667 H 63.19 5.67 83.05 H 23 C423 0
2668 C 58.91 6.66 86.93 C.3 23 C423 0
2669 C 59.88 7.47 86.33 C.3 23 C423 0
2670 H 58.34 7.2 87.48 H 23 C423 0
2671 H 60.47 7.81 87 H 23 C423 0
2672 H 59.46 8.2 85.89 H 23 C423 0
2673 C1 60.68 6.65 85.31 C.3 23 C423 0
2674 O2 60.88 7.1 84.18 O.3 23 C423 0
2675 O3 61.15 5.42 85.65 O.3 23 C423 0
2676 C 59.6 5.6 87.8 C.3 23 C423 0
2677 H 58.94 5.05 88.21 H 23 C423 0
2678 H 60.17 5.06 87.26 H 23 C423 0
2679 H 60.12 6.02 88.48 H 23 C423 0
2680 C 55.84 4.61 84.72 C.3 23 C423 0
2681 C 56.81 3.87 85.41 C.3 23 C423 0
2682 H 55.27 4.02 84.24 H 23 C423 0
2683 H 57.4 3.46 84.79 H 23 C423 0
2684 H 56.39 3.2 85.93 H 23 C423 0
2685 C1 57.61 4.8 86.34 C.3 23 C423 0
2686 O2 57.81 4.48 87.51 O.3 23 C423 0
2687 O3 58.09 5.99 85.86 O.3 23 C423 0
2688 C 56.53 5.57 83.74 C.3 23 C423 0
2689 H 55.87 6.08 83.28 H 23 C423 0
2690 H 57.1 6.16 84.22 H 23 C423 0
2691 H 57.05 5.08 83.12 H 23 C423 0
2692 C 52.77 6.9 86.69 C.3 23 C423 0
2693 C 53.74 7.56 85.93 C.3 23 C423 0
2694 H 52.21 7.54 87.11 H 23 C423 0
2695 H 54.33 8.03 86.5 H 23 C423 0
2696 H 53.32 8.17 85.34 H 23 C423 0
2697 C1 54.54 6.52 85.11 C.3 23 C423 0
2698 O2 54.75 6.71 83.91 O.3 23 C423 0
2699 O3 55.02 5.4 85.71 O.3 23 C423 0
2700 C 53.46 6.05 87.78 C.3 23 C423 0
2701 H 52.81 5.6 88.29 H 23 C423 0
2702 H 54.03 5.41 87.36 H 23 C423 0
2703 H 53.98 6.61 88.34 H 23 C423 0
2704 C 49.71 4.41 84.99 C.3 23 C423 0
2705 C 50.68 3.83 85.82 C.3 23 C423 0
2706 H 49.14 3.72 84.65 H 23 C423 0
2707 H 51.27 3.3 85.3 H 23 C423 0
2708 H 50.25 3.29 86.48 H 23 C423 0
2709 C1 51.47 4.95 86.52 C.3 23 C423 0
2710 O2 51.68 4.9 87.73 O.3 23 C423 0
2711 O3 51.95 6 85.8 O.3 23 C423 0
2712 C 50.4 5.13 83.82 C.3 23 C423 0
2713 H 49.74 5.52 83.25 H 23 C423 0
2714 H 50.96 5.81 84.16 H 23 C423 0
2715 H 50.91 4.51 83.32 H 23 C423 0
2716 C 46.64 7.07 86.41 C.3 23 C423 0
2717 C 47.61 7.55 85.52 C.3 23 C423 0
2718 H 46.07 7.79 86.67 H 23 C423 0
2719 H 48.2 8.13 85.97 H 23 C423 0
2720 H 47.19 8.01 84.81 H 23 C423 0
2721 C1 48.41 6.36 84.95 C.3 23 C423 0
2722 O2 48.61 6.28 83.74 O.3 23 C423 0
2723 O3 48.88 5.39 85.78 O.3 23 C423 0
2724 C 47.33 6.48 87.65 C.3 23 C423 0
2725 H 46.67 6.16 88.25 H 23 C423 0
2726 H 47.9 5.76 87.39 H 23 C423 0
2727 H 47.85 7.15 88.07 H 23 C423 0
2728 C 43.57 4.27 85.29 C.3 23 C423 0
2729 C 44.54 3.89 86.23 C.3 23 C423 0
2730 H 43.01 3.52 85.11 H 23 C423 0
2731 H 45.13 3.26 85.84 H 23 C423 0
2732 H 44.12 3.51 86.99 H 23 C423 0
2733 C1 45.34 5.14 86.67 C.3 23 C423 0
2734 O2 45.54 5.35 87.86 O.3 23 C423 0
2735 O3 45.82 6 85.73 O.3 23 C423 0
2736 C 44.26 4.72 83.99 C.3 23 C423 0
2737 H 43.6 4.97 83.36 H 23 C423 0
2738 H 44.83 5.46 84.17 H 23 C423 0
2739 H 44.78 4 83.64 H 23 C423 0
2740 C 40.5 7.18 86.09 C.3 23 C423 0
2741 C 41.47 7.44 85.12 C.3 23 C423 0
2742 H 39.94 7.93 86.19 H 23 C423 0
2743 H 42.06 8.12 85.43 H 23 C423 0
2744 H 41.05 7.74 84.32 H 23 C423 0
2745 C1 42.27 6.16 84.82 C.3 23 C423 0
2746 O2 42.48 5.82 83.66 O.3 23 C423 0
2747 O3 42.75 5.4 85.85 O.3 23 C423 0
2748 C 41.19 6.87 87.43 C.3 23 C423 0
2749 H 40.54 6.69 88.09 H 23 C423 0
2750 H 41.76 6.12 87.33 H 23 C423 0
2751 H 41.71 7.62 87.7 H 23 C423 0
2752 C 37.44 4.2 85.62 C.3 23 C423 0
2753 C 38.41 4.04 86.62 C.3 23 C423 0
2754 H 36.87 3.43 85.61 H 23 C423 0
2755 H 39 3.33 86.38 H 23 C423 0
2756 H 37.98 3.83 87.44 H 23 C423 0
2757 C1 39.2 5.35 86.77 C.3 23 C423 0
2758 O2 39.41 5.82 87.89 O.3 23 C423 0
2759 O3 39.68 5.99 85.67 O.3 23 C423 0
2760 C 38.13 4.35 84.25 C.3 23 C423 0
2761 H 37.47 4.46 83.58 H 23 C423 0
2762 H 38.69 5.11 84.27 H 23 C423 0
2763 H 38.64 3.57 84.07 H 23 C423 0
2764 C 34.37 7.21 85.76 C.3 23 C423 0
2765 C 35.34 7.26 84.75 C.3 23 C423 0
2766 H 33.8 7.97 85.69 H 23 C423 0
2767 H 35.93 7.98 84.91 H 23 C423 0
2768 H 34.91 7.37 83.91 H 23 C423 0
2769 C1 36.14 5.94 84.74 C.3 23 C423 0
2770 O2 36.34 5.35 83.68 O.3 23 C423 0
2771 O3 36.61 5.43 85.91 O.3 23 C423 0
2772 C 35.06 7.21 87.13 C.3 23 C423 0
2773 H 34.4 7.18 87.82 H 23 C423 0
2774 H 35.62 6.45 87.2 H 23 C423 0
2775 H 35.58 8 87.23 H 23 C423 0
2776 C 31.3 4.2 85.96 C.3 23 C423 0
2777 C 32.27 4.27 86.96 C.3 23 C423 0
2778 H 30.73 3.45 86.11 H 23 C423 0
2779 H 32.86 3.52 86.88 H 23 C423 0
2780 H 31.85 4.24 87.81 H 23 C423 0
2781 C1 33.07 5.58 86.82 C.3 23 C423 0
2782 O2 33.27 6.28 87.81 O.3 23 C423 0
2783 O3 33.54 5.95 85.61 O.3 23 C423 0
2784 C 31.99 4.05 84.59 C.3 23 C423 0
2785 H 31.33 4 83.9 H 23 C423 0
2786 H 32.56 4.8 84.43 H 23 C423 0
2787 H 32.51 3.25 84.58 H 23 C423 0
2788 C 28.23 7.17 85.43 C.3 23 C423 0
2789 C 29.2 7 84.43 C.3 23 C423 0
2790 H 27.67 7.9 85.19 H 23 C423 0
2791 H 29.79 7.74 84.43 H 23 C423 0
2792 H 28.78 6.92 83.59 H 23 C423 0
2793 C1 30 5.71 84.72 C.3 23 C423 0
2794 O2 30.21 4.9 83.81 O.3 23 C423 0
2795 O3 30.48 5.47 85.97 O.3 23 C423 0
2796 C 28.92 7.47 86.77 C.3 23 C423 0
2797 H 28.27 7.59 87.44 H 23 C423 0
2798 H 29.49 6.75 87 H 23 C423 0
2799 H 29.44 8.27 86.69 H 23 C423 0
2800 C 25.17 4.28 86.28 C.3 23 C423 0
2801 C 26.14 4.56 87.25 C.3 23 C423 0
2802 H 24.6 3.58 86.6 H 23 C423 0
2803 H 26.73 3.82 87.33 H 23 C423 0
2804 H 25.71 4.73 88.08 H 23 C423 0
2805 C1 26.93 5.81 86.82 C.3 23 C423 0
2806 O2 27.14 6.71 87.63 O.3 23 C423 0
2807 O3 27.41 5.91 85.56 O.3 23 C423 0
2808 C 25.86 3.83 84.98 C.3 23 C423 0
2809 H 25.2 3.64 84.32 H 23 C423 0
2810 H 26.42 4.52 84.67 H 23 C423 0
2811 H 26.37 3.05 85.15 H 23 C423 0
2812 C 22.1 7.06 85.11 C.3 23 C423 0
2813 C 23.07 6.67 84.18 C.3 23 C423 0
2814 H 21.53 7.72 84.72 H 23 C423 0
2815 H 23.66 7.39 84.01 H 23 C423 0
2816 H 22.64 6.41 83.37 H 23 C423 0
2817 C1 23.87 5.48 84.74 C.3 23 C423 0
2818 O2 24.07 4.49 84.04 O.3 23 C423 0
2819 O3 24.34 5.51 86.01 O.3 23 C423 0
2820 C 22.79 7.65 86.36 C.3 23 C423 0
2821 H 22.13 7.92 86.99 H 23 C423 0
2822 H 23.35 6.99 86.74 H 23 C423 0
2823 H 23.31 8.41 86.1 H 23 C423 0
2824 C 19.03 4.42 86.58 C.3 23 C423 0
2825 C 20 4.92 87.46 C.3 23 C423 0
2826 H 18.46 3.82 87.04 H 23 C423 0
2827 H 20.59 4.21 87.71 H 23 C423 0
2828 H 19.58 5.26 88.24 H 23 C423 0
2829 C1 20.8 6.04 86.77 C.3 23 C423 0
2830 O2 21 7.1 87.37 O.3 23 C423 0
2831 O3 21.27 5.86 85.51 O.3 23 C423 0
2832 C 19.72 3.7 85.41 C.3 23 C423 0
2833 H 19.06 3.37 84.81 H 23 C423 0
2834 H 20.29 4.31 84.95 H 23 C423 0
2835 H 20.24 2.98 85.75 H 23 C423 0
2836 C 15.96 6.88 84.83 C.3 23 C423 0
2837 C 16.93 6.3 84.01 C.3 23 C423 0
2838 H 15.4 7.44 84.31 H 23 C423 0
2839 H 17.52 6.97 83.69 H 23 C423 0
2840 H 16.51 5.87 83.27 H 23 C423 0
2841 C1 17.73 5.26 84.82 C.3 23 C423 0
2842 O2 17.94 4.14 84.35 O.3 23 C423 0
2843 O3 18.21 5.57 86.05 O.3 23 C423 0
2844 C 16.65 7.73 85.91 C.3 23 C423 0
2845 H 16 8.13 86.47 H 23 C423 0
2846 H 17.22 7.18 86.44 H 23 C423 0
2847 H 17.17 8.41 85.5 H 23 C423 0
2848 C 12.89 4.63 86.84 C.3 23 C423 0
2849 C 13.87 5.31 87.6 C.3 23 C423 0
2850 H 12.33 4.14 87.42 H 23 C423 0
2851 H 14.45 4.68 87.99 H 23 C423 0
2852 H 13.44 5.81 88.28 H 23 C423 0
2853 C1 14.66 6.25 86.68 C.3 23 C423 0
2854 O2 14.87 7.42 87.02 O.3 23 C423 0
2855 O3 15.14 5.8 85.49 O.3 23 C423 0
2856 C 13.59 3.67 85.86 C.3 23 C423 0
2857 H 12.93 3.21 85.35 H 23 C423 0
2858 H 14.15 4.16 85.28 H 23 C423 0
2859 H 14.1 3.04 86.35 H 23 C423 0
2860 C 9.83 6.65 84.59 C.3 23 C423 0
2861 C 10.8 5.89 83.92 C.3 23 C423 0
2862 H 9.26 7.07 83.96 H 23 C423 0
2863 H 11.39 6.48 83.46 H 23 C423 0
2864 H 10.37 5.31 83.3 H 23 C423 0
2865 C1 11.59 5.06 84.94 C.3 23 C423 0
2866 O2 11.8 3.86 84.72 O.3 23 C423 0
2867 O3 12.07 5.64 86.07 O.3 23 C423 0
2868 C 10.52 7.71 85.46 C.3 23 C423 0
2869 H 9.86 8.22 85.92 H 23 C423 0
2870 H 11.08 7.29 86.1 H 23 C423 0
2871 H 11.04 8.29 84.91 H 23 C423 0
2872 C 6.76 4.9 87.05 C.3 23 C423 0
2873 C 7.73 5.72 87.64 C.3 23 C423 0
2874 H 6.19 4.54 87.73 H 23 C423 0
2875 H 8.32 5.19 88.16 H 23 C423 0
2876 H 7.31 6.36 88.19 H 23 C423 0
2877 C1 8.53 6.44 86.53 C.3 23 C423 0
2878 O2 8.73 7.65 86.61 O.3 23 C423 0
2879 O3 9 5.74 85.47 O.3 23 C423 0
2880 C 7.45 3.74 86.3 C.3 23 C423 0
2881 H 6.79 3.18 85.91 H 23 C423 0
2882 H 8.02 4.09 85.63 H 23 C423 0
2883 H 7.97 3.23 86.92 H 23 C423 0
2884 H 3.17 5.93 85.08 H 24 C424 0
2885 C 3.69 6.36 84.41 C.3 24 C424 0
2886 C 4.66 5.48 83.92 C.3 24 C424 0
2887 H 3.13 6.64 83.7 H 24 C424 0
2888 H 5.25 5.95 83.35 H 24 C424 0
2889 H 4.24 4.78 83.44 H 24 C424 0
2890 C1 5.46 4.89 85.1 C.3 24 C424 0
2891 O2 5.67 3.68 85.16 O.3 24 C424 0
2892 O3 5.94 5.7 86.08 O.3 24 C424 0
2893 C 4.38 7.6 85.03 C.3 24 C424 0
2894 H 3.72 8.19 85.36 H 24 C424 0
2895 H 4.95 7.32 85.74 H 24 C424 0
2896 H 4.9 8.03 84.36 H 24 C424 0
2897 C 92.65 17.88 4.44 C.3 25 C425 0
2898 C 93.62 17.04 3.89 C.3 25 C425 0
2899 H 92.09 18.21 3.75 H 25 C425 0
2900 H 94.21 17.55 3.35 H 25 C425 0
2901 H 93.2 16.37 3.36 H 25 C425 0
2902 C1 94.42 16.36 5.02 C.3 25 C425 0
2903 O2 94.63 15.15 4.99 O.3 25 C425 0
2904 O3 94.9 17.1 6.05 O.3 25 C425 0
2905 H5 95.42 16.55 6.63 H 25 C425 0
2906 C 93.34 19.06 5.15 C.3 25 C425 0
2907 H 92.68 19.64 5.52 H 25 C425 0
2908 H 93.91 18.74 5.83 H 25 C425 0
2909 H 93.86 19.55 4.51 H 25 C425 0
2910 C 89.58 16.52 7.13 C.3 26 C426 0
2911 C 90.55 17.42 7.59 C.3 26 C426 0
2912 H 89.02 16.27 7.85 H 26 C426 0
2913 H 91.15 16.97 8.19 H 26 C426 0
2914 H 90.13 18.14 8.04 H 26 C426 0
2915 C1 91.35 17.96 6.39 C.3 26 C426 0
2916 O2 91.56 19.17 6.29 O.3 26 C426 0
2917 O3 91.83 17.11 5.45 O.3 26 C426 0
2918 C 90.28 15.26 6.57 C.3 26 C426 0
2919 H 89.62 14.65 6.26 H 26 C426 0
2920 H 90.84 15.51 5.85 H 26 C426 0
2921 H 90.79 14.85 7.25 H 26 C426 0
2922 C 86.52 17.58 4.31 C.3 26 C426 0
2923 C 87.49 16.63 3.95 C.3 26 C426 0
2924 H 85.95 17.74 3.56 H 26 C426 0
2925 H 88.08 17.01 3.31 H 26 C426 0
2926 H 87.06 15.87 3.58 H 26 C426 0
2927 C1 88.28 16.22 5.21 C.3 26 C426 0
2928 O2 88.49 15.03 5.44 O.3 26 C426 0
2929 O3 88.76 17.17 6.05 O.3 26 C426 0
2930 C 87.21 18.89 4.73 C.3 26 C426 0
2931 H 86.55 19.53 4.97 H 26 C426 0
2932 H 87.77 18.72 5.48 H 26 C426 0
2933 H 87.73 19.22 4.01 H 26 C426 0
2934 C 83.45 16.84 7.23 C.3 26 C426 0
2935 C 84.42 17.81 7.48 C.3 26 C426 0
2936 H 82.88 16.75 7.99 H 26 C426 0
2937 H 85.01 17.51 8.16 H 26 C426 0
2938 H 84 18.62 7.77 H 26 C426 0
2939 C1 85.22 18.09 6.19 C.3 26 C426 0
2940 O2 85.42 19.24 5.83 O.3 26 C426 0
2941 O3 85.69 17.05 5.46 O.3 26 C426 0
2942 C 84.14 15.49 6.96 C.3 26 C426 0
2943 H 83.48 14.82 6.79 H 26 C426 0
2944 H 84.71 15.57 6.2 H 26 C426 0
2945 H 84.66 15.24 7.71 H 26 C426 0
2946 C 80.38 17.25 4.24 C.3 26 C426 0
2947 C 81.35 16.25 4.11 C.3 26 C426 0
2948 H 79.82 17.25 3.48 H 26 C426 0
2949 H 81.94 16.48 3.4 H 26 C426 0
2950 H 80.93 15.42 3.91 H 26 C426 0
2951 C1 82.15 16.12 5.42 C.3 26 C426 0
2952 O2 82.36 15.01 5.91 O.3 26 C426 0
2953 O3 82.63 17.24 6.03 O.3 26 C426 0
2954 C 81.07 18.62 4.37 C.3 26 C426 0
2955 H 80.41 19.3 4.47 H 26 C426 0
2956 H 81.64 18.62 5.13 H 26 C426 0
2957 H 81.59 18.79 3.59 H 26 C426 0
2958 C 77.31 17.17 7.26 C.3 26 C426 0
2959 C 78.28 18.18 7.29 C.3 26 C426 0
2960 H 76.75 17.25 8.02 H 26 C426 0
2961 H 78.88 18.03 8.02 H 26 C426 0
2962 H 77.86 19.02 7.39 H 26 C426 0
2963 C1 79.08 18.16 5.97 C.3 26 C426 0
2964 O2 79.29 19.21 5.36 O.3 26 C426 0
2965 O3 79.56 16.98 5.48 O.3 26 C426 0
2966 C 78.01 15.79 7.29 C.3 26 C426 0
2967 H 77.35 15.11 7.27 H 26 C426 0
2968 H 78.57 15.71 6.53 H 26 C426 0
2969 H 78.52 15.71 8.08 H 26 C426 0
2970 C 74.25 16.92 4.25 C.3 26 C426 0
2971 C 75.22 15.91 4.34 C.3 26 C426 0
2972 H 73.68 16.75 3.51 H 26 C426 0
2973 H 75.81 15.97 3.6 H 26 C426 0
2974 H 74.79 15.06 4.33 H 26 C426 0
2975 C1 76.01 16.07 5.65 C.3 26 C426 0
2976 O2 76.22 15.1 6.37 O.3 26 C426 0
2977 O3 76.49 17.3 6 O.3 26 C426 0
2978 C 74.94 18.28 4.08 C.3 26 C426 0
2979 H 74.28 18.96 4.02 H 26 C426 0
2980 H 75.5 18.45 4.82 H 26 C426 0
2981 H 75.46 18.27 3.28 H 26 C426 0
2982 C 71.18 17.5 7.22 C.3 26 C426 0
2983 C 72.15 18.49 7.02 C.3 26 C426 0
2984 H 70.61 17.75 7.94 H 26 C426 0
2985 H 72.74 18.51 7.76 H 26 C426 0
2986 H 71.73 19.34 6.93 H 26 C426 0
2987 C1 72.95 18.18 5.74 C.3 26 C426 0
2988 O2 73.15 19.07 4.91 O.3 26 C426 0
2989 O3 73.42 16.93 5.52 O.3 26 C426 0
2990 C 71.87 16.16 7.54 C.3 26 C426 0
2991 H 71.21 15.49 7.68 H 26 C426 0
2992 H 72.44 15.92 6.82 H 26 C426 0
2993 H 72.39 16.26 8.33 H 26 C426 0
2994 C 68.11 16.59 4.34 C.3 26 C426 0
2995 C 69.08 15.63 4.64 C.3 26 C426 0
2996 H 67.55 16.26 3.65 H 26 C426 0
2997 H 69.67 15.53 3.9 H 26 C426 0
2998 H 68.66 14.8 4.82 H 26 C426 0
2999 C1 69.88 16.08 5.88 C.3 26 C426 0
3000 O2 70.09 15.29 6.8 O.3 26 C426 0
3001 O3 70.36 17.35 5.96 O.3 26 C426 0
3002 C 68.8 17.88 3.86 C.3 26 C426 0
3003 H 68.14 18.54 3.66 H 26 C426 0
3004 H 69.37 18.21 4.55 H 26 C426 0
3005 H 69.32 17.7 3.09 H 26 C426 0
3006 C 65.04 17.81 7.1 C.3 26 C426 0
3007 C 66.01 18.74 6.69 C.3 26 C426 0
3008 H 64.48 18.22 7.75 H 26 C426 0
3009 H 66.6 18.92 7.41 H 26 C426 0
3010 H 65.59 19.54 6.42 H 26 C426 0
3011 C1 66.81 18.16 5.51 C.3 26 C426 0
3012 O2 67.02 18.84 4.51 O.3 26 C426 0
3013 O3 67.29 16.88 5.57 O.3 26 C426 0
3014 C 65.74 16.58 7.71 C.3 26 C426 0
3015 H 65.08 15.96 7.99 H 26 C426 0
3016 H 66.3 16.18 7.06 H 26 C426 0
3017 H 66.25 16.85 8.46 H 26 C426 0
3018 C 61.98 16.3 4.49 C.3 26 C426 0
3019 C 62.95 15.42 5 C.3 26 C426 0
3020 H 61.41 15.82 3.89 H 26 C426 0
3021 H 63.54 15.16 4.3 H 26 C426 0
3022 H 62.52 14.65 5.36 H 26 C426 0
3023 C1 63.74 16.13 6.11 C.3 26 C426 0
3024 O2 63.95 15.56 7.18 O.3 26 C426 0
3025 O3 64.22 17.39 5.91 O.3 26 C426 0
3026 C 62.67 17.45 3.74 C.3 26 C426 0
3027 H 62.01 18.04 3.4 H 26 C426 0
3028 H 63.23 17.92 4.34 H 26 C426 0
3029 H 63.19 17.1 3.03 H 26 C426 0
3030 C 58.91 18.09 6.91 C.3 26 C426 0
3031 C 59.88 18.9 6.31 C.3 26 C426 0
3032 H 58.34 18.63 7.46 H 26 C426 0
3033 H 60.47 19.24 6.98 H 26 C426 0
3034 H 59.46 19.63 5.87 H 26 C426 0
3035 C1 60.68 18.08 5.29 C.3 26 C426 0
3036 O2 60.88 18.53 4.16 O.3 26 C426 0
3037 O3 61.15 16.85 5.63 O.3 26 C426 0
3038 C 59.6 17.03 7.78 C.3 26 C426 0
3039 H 58.94 16.48 8.19 H 26 C426 0
3040 H 60.17 16.49 7.24 H 26 C426 0
3041 H 60.12 17.45 8.46 H 26 C426 0
3042 C 55.84 16.04 4.7 C.3 26 C426 0
3043 C 56.81 15.3 5.39 C.3 26 C426 0
3044 H 55.27 15.45 4.22 H 26 C426 0
3045 H 57.4 14.89 4.77 H 26 C426 0
3046 H 56.39 14.63 5.91 H 26 C426 0
3047 C1 57.61 16.23 6.32 C.3 26 C426 0
3048 O2 57.81 15.91 7.49 O.3 26 C426 0
3049 O3 58.09 17.42 5.84 O.3 26 C426 0
3050 C 56.53 17 3.72 C.3 26 C426 0
3051 H 55.87 17.51 3.26 H 26 C426 0
3052 H 57.1 17.59 4.2 H 26 C426 0
3053 H 57.05 16.51 3.1 H 26 C426 0
3054 C 52.77 18.33 6.67 C.3 26 C426 0
3055 C 53.74 18.99 5.91 C.3 26 C426 0
3056 H 52.21 18.97 7.09 H 26 C426 0
3057 H 54.33 19.46 6.48 H 26 C426 0
3058 H 53.32 19.6 5.32 H 26 C426 0
3059 C1 54.54 17.95 5.09 C.3 26 C426 0
3060 O2 54.75 18.14 3.89 O.3 26 C426 0
3061 O3 55.02 16.83 5.69 O.3 26 C426 0
3062 C 53.46 17.48 7.76 C.3 26 C426 0
3063 H 52.81 17.03 8.27 H 26 C426 0
3064 H 54.03 16.84 7.34 H 26 C426 0
3065 H 53.98 18.04 8.32 H 26 C426 0
3066 C 49.71 15.84 4.97 C.3 26 C426 0
3067 C 50.68 15.26 5.8 C.3 26 C426 0
3068 H 49.14 15.15 4.63 H 26 C426 0
3069 H 51.27 14.73 5.28 H 26 C426 0
3070 H 50.25 14.72 6.46 H 26 C426 0
3071 C1 51.47 16.38 6.5 C.3 26 C426 0
3072 O2 51.68 16.33 7.71 O.3 26 C426 0
3073 O3 51.95 17.43 5.78 O.3 26 C426 0
3074 C 50.4 16.56 3.8 C.3 26 C426 0
3075 H 49.74 16.95 3.23 H 26 C426 0
3076 H 50.96 17.24 4.14 H 26 C426 0
3077 H 50.91 15.94 3.3 H 26 C426 0
3078 C 46.64 18.5 6.39 C.3 26 C426 0
3079 C 47.61 18.98 5.5 C.3 26 C426 0
3080 H 46.07 19.22 6.65 H 26 C426 0
3081 H 48.2 19.56 5.95 H 26 C426 0
3082 H 47.19 19.44 4.79 H 26 C426 0
3083 C1 48.41 17.79 4.93 C.3 26 C426 0
3084 O2 48.61 17.71 3.72 O.3 26 C426 0
3085 O3 48.88 16.82 5.76 O.3 26 C426 0
3086 C 47.33 17.91 7.63 C.3 26 C426 0
3087 H 46.67 17.59 8.23 H 26 C426 0
3088 H 47.9 17.19 7.37 H 26 C426 0
3089 H 47.85 18.58 8.05 H 26 C426 0
3090 C 43.57 15.7 5.27 C.3 26 C426 0
3091 C 44.54 15.32 6.21 C.3 26 C426 0
3092 H 43.01 14.95 5.09 H 26 C426 0
3093 H 45.13 14.69 5.82 H 26 C426 0
3094 H 44.12 14.94 6.97 H 26 C426 0
3095 C1 45.34 16.57 6.65 C.3 26 C426 0
3096 O2 45.54 16.78 7.84 O.3 26 C426 0
3097 O3 45.82 17.43 5.71 O.3 26 C426 0
3098 C 44.26 16.15 3.97 C.3 26 C426 0
3099 H 43.6 16.4 3.34 H 26 C426 0
3100 H 44.83 16.89 4.15 H 26 C426 0
3101 H 44.78 15.43 3.62 H 26 C426 0
3102 C 40.5 18.61 6.07 C.3 26 C426 0
3103 C 41.47 18.87 5.1 C.3 26 C426 0
3104 H 39.94 19.36 6.17 H 26 C426 0
3105 H 42.06 19.55 5.41 H 26 C426 0
3106 H 41.05 19.17 4.3 H 26 C426 0
3107 C1 42.27 17.59 4.8 C.3 26 C426 0
3108 O2 42.48 17.25 3.64 O.3 26 C426 0
3109 O3 42.75 16.83 5.83 O.3 26 C426 0
3110 C 41.19 18.3 7.41 C.3 26 C426 0
3111 H 40.54 18.12 8.07 H 26 C426 0
3112 H 41.76 17.55 7.31 H 26 C426 0
3113 H 41.71 19.05 7.68 H 26 C426 0
3114 C 37.44 15.63 5.6 C.3 26 C426 0
3115 C 38.41 15.47 6.6 C.3 26 C426 0
3116 H 36.87 14.86 5.59 H 26 C426 0
3117 H 39 14.76 6.36 H 26 C426 0
3118 H 37.98 15.26 7.42 H 26 C426 0
3119 C1 39.2 16.78 6.75 C.3 26 C426 0
3120 O2 39.41 17.25 7.87 O.3 26 C426 0
3121 O3 39.68 17.42 5.65 O.3 26 C426 0
3122 C 38.13 15.78 4.23 C.3 26 C426 0
3123 H 37.47 15.89 3.56 H 26 C426 0
3124 H 38.69 16.54 4.25 H 26 C426 0
3125 H 38.64 15 4.05 H 26 C426 0
3126 C 34.37 18.64 5.74 C.3 26 C426 0
3127 C 35.34 18.69 4.73 C.3 26 C426 0
3128 H 33.8 19.4 5.67 H 26 C426 0
3129 H 35.93 19.41 4.89 H 26 C426 0
3130 H 34.91 18.8 3.89 H 26 C426 0
3131 C1 36.14 17.37 4.72 C.3 26 C426 0
3132 O2 36.34 16.78 3.66 O.3 26 C426 0
3133 O3 36.61 16.86 5.89 O.3 26 C426 0
3134 C 35.06 18.64 7.11 C.3 26 C426 0
3135 H 34.4 18.61 7.8 H 26 C426 0
3136 H 35.62 17.88 7.18 H 26 C426 0
3137 H 35.58 19.43 7.21 H 26 C426 0
3138 C 31.3 15.63 5.94 C.3 26 C426 0
3139 C 32.27 15.7 6.94 C.3 26 C426 0
3140 H 30.73 14.88 6.09 H 26 C426 0
3141 H 32.86 14.95 6.86 H 26 C426 0
3142 H 31.85 15.67 7.79 H 26 C426 0
3143 C1 33.07 17.01 6.8 C.3 26 C426 0
3144 O2 33.27 17.71 7.79 O.3 26 C426 0
3145 O3 33.54 17.38 5.59 O.3 26 C426 0
3146 C 31.99 15.48 4.57 C.3 26 C426 0
3147 H 31.33 15.43 3.88 H 26 C426 0
3148 H 32.56 16.23 4.41 H 26 C426 0
3149 H 32.51 14.68 4.56 H 26 C426 0
3150 C 28.23 18.6 5.41 C.3 26 C426 0
3151 C 29.2 18.43 4.41 C.3 26 C426 0
3152 H 27.67 19.33 5.17 H 26 C426 0
3153 H 29.79 19.17 4.41 H 26 C426 0
3154 H 28.78 18.35 3.57 H 26 C426 0
3155 C1 30 17.14 4.7 C.3 26 C426 0
3156 O2 30.21 16.33 3.79 O.3 26 C426 0
3157 O3 30.48 16.9 5.95 O.3 26 C426 0
3158 C 28.92 18.9 6.75 C.3 26 C426 0
3159 H 28.27 19.02 7.42 H 26 C426 0
3160 H 29.49 18.18 6.98 H 26 C426 0
3161 H 29.44 19.7 6.67 H 26 C426 0
3162 C 25.17 15.71 6.26 C.3 26 C426 0
3163 C 26.14 15.99 7.23 C.3 26 C426 0
3164 H 24.6 15.01 6.58 H 26 C426 0
3165 H 26.73 15.25 7.31 H 26 C426 0
3166 H 25.71 16.16 8.06 H 26 C426 0
3167 C1 26.93 17.24 6.8 C.3 26 C426 0
3168 O2 27.14 18.14 7.61 O.3 26 C426 0
3169 O3 27.41 17.34 5.54 O.3 26 C426 0
3170 C 25.86 15.26 4.96 C.3 26 C426 0
3171 H 25.2 15.07 4.3 H 26 C426 0
3172 H 26.42 15.95 4.65 H 26 C426 0
3173 H 26.37 14.48 5.13 H 26 C426 0
3174 C 22.1 18.49 5.09 C.3 26 C426 0
3175 C 23.07 18.1 4.16 C.3 26 C426 0
3176 H 21.53 19.15 4.7 H 26 C426 0
3177 H 23.66 18.82 3.99 H 26 C426 0
3178 H 22.64 17.84 3.35 H 26 C426 0
3179 C1 23.87 16.91 4.72 C.3 26 C426 0
3180 O2 24.07 15.92 4.02 O.3 26 C426 0
3181 O3 24.34 16.94 5.99 O.3 26 C426 0
3182 C 22.79 19.08 6.34 C.3 26 C426 0
3183 H 22.13 19.35 6.97 H 26 C426 0
3184 H 23.35 18.42 6.72 H 26 C426 0
3185 H 23.31 19.84 6.08 H 26 C426 0
3186 C 19.03 15.85 6.56 C.3 26 C426 0
3187 C 20 16.35 7.44 C.3 26 C426 0
3188 H 18.46 15.25 7.02 H 26 C426 0
3189 H 20.59 15.64 7.69 H 26 C426 0
3190 H 19.58 16.69 8.22 H 26 C426 0
3191 C1 20.8 17.47 6.75 C.3 26 C426 0
3192 O2 21 18.53 7.35 O.3 26 C426 0
3193 O3 21.27 17.29 5.49 O.3 26 C426 0
3194 C 19.72 15.13 5.39 C.3 26 C426 0
3195 H 19.06 14.8 4.79 H 26 C426 0
3196 H 20.29 15.74 4.93 H 26 C426 0
3197 H 20.24 14.41 5.73 H 26 C426 0
3198 C 15.96 18.31 4.81 C.3 26 C426 0
3199 C 16.93 17.73 3.99 C.3 26 C426 0
3200 H 15.4 18.87 4.29 H 26 C426 0
3201 H 17.52 18.4 3.67 H 26 C426 0
3202 H 16.51 17.3 3.25 H 26 C426 0
3203 C1 17.73 16.69 4.8 C.3 26 C426 0
3204 O2 17.94 15.57 4.33 O.3 26 C426 0
3205 O3 18.21 17 6.03 O.3 26 C426 0
3206 C 16.65 19.16 5.89 C.3 26 C426 0
3207 H 16 19.56 6.45 H 26 C426 0
3208 H 17.22 18.61 6.42 H 26 C426 0
3209 H 17.17 19.84 5.48 H 26 C426 0
3210 C 12.89 16.06 6.82 C.3 26 C426 0
3211 C 13.87 16.74 7.58 C.3 26 C426 0
3212 H 12.33 15.57 7.4 H 26 C426 0
3213 H 14.45 16.11 7.97 H 26 C426 0
3214 H 13.44 17.24 8.26 H 26 C426 0
3215 C1 14.66 17.68 6.66 C.3 26 C426 0
3216 O2 14.87 18.85 7 O.3 26 C426 0
3217 O3 15.14 17.23 5.47 O.3 26 C426 0
3218 C 13.59 15.1 5.84 C.3 26 C426 0
3219 H 12.93 14.64 5.33 H 26 C426 0
3220 H 14.15 15.59 5.26 H 26 C426 0
3221 H 14.1 14.47 6.33 H 26 C426 0
3222 C 9.83 18.08 4.57 C.3 26 C426 0
3223 C 10.8 17.32 3.9 C.3 26 C426 0
3224 H 9.26 18.5 3.94 H 26 C426 0
3225 H 11.39 17.91 3.44 H 26 C426 0
3226 H 10.37 16.74 3.28 H 26 C426 0
3227 C1 11.59 16.49 4.92 C.3 26 C426 0
3228 O2 11.8 15.29 4.7 O.3 26 C426 0
3229 O3 12.07 17.07 6.05 O.3 26 C426 0
3230 C 10.52 19.14 5.44 C.3 26 C426 0
3231 H 9.86 19.65 5.9 H 26 C426 0
3232 H 11.08 18.72 6.08 H 26 C426 0
3233 H 11.04 19.72 4.89 H 26 C426 0
3234 C 6.76 16.33 7.03 C.3 26 C426 0
3235 C 7.73 17.15 7.62 C.3 26 C426 0
3236 H 6.19 15.97 7.71 H 26 C426 0
3237 H 8.32 16.62 8.14 H 26 C426 0
3238 H 7.31 17.79 8.17 H 26 C426 0
3239 C1 8.53 17.87 6.51 C.3 26 C426 0
3240 O2 8.73 19.08 6.59 O.3 26 C426 0
3241 O3 9 17.17 5.45 O.3 26 C426 0
3242 C 7.45 15.17 6.28 C.3 26 C426 0
3243 H 6.79 14.61 5.89 H 26 C426 0
3244 H 8.02 15.52 5.61 H 26 C426 0
3245 H 7.97 14.66 6.9 H 26 C426 0
3246 H 3.17 17.36 5.06 H 27 C427 0
3247 C 3.69 17.79 4.39 C.3 27 C427 0
3248 C 4.66 16.91 3.9 C.3 27 C427 0
3249 H 3.13 18.07 3.68 H 27 C427 0
3250 H 5.25 17.38 3.33 H 27 C427 0
3251 H 4.24 16.21 3.42 H 27 C427 0
3252 C1 5.46 16.32 5.08 C.3 27 C427 0
3253 O2 5.67 15.11 5.14 O.3 27 C427 0
3254 O3 5.94 17.13 6.06 O.3 27 C427 0
3255 C 4.38 19.03 5.01 C.3 27 C427 0
3256 H 3.72 19.62 5.34 H 27 C427 0
3257 H 4.95 18.75 5.72 H 27 C427 0
3258 H 4.9 19.46 4.34 H 27 C427 0
3259 C 92.65 17.88 15.87 C.3 28 C428 0
3260 C 93.62 17.04 15.32 C.3 28 C428 0
3261 H 92.09 18.21 15.18 H 28 C428 0
3262 H 94.21 17.55 14.78 H 28 C428 0
3263 H 93.2 16.37 14.79 H 28 C428 0
3264 C1 94.42 16.36 16.45 C.3 28 C428 0
3265 O2 94.63 15.15 16.42 O.3 28 C428 0
3266 O3 94.9 17.1 17.48 O.3 28 C428 0
3267 H5 95.42 16.55 18.06 H 28 C428 0
3268 C 93.34 19.06 16.58 C.3 28 C428 0
3269 H 92.68 19.64 16.95 H 28 C428 0
3270 H 93.91 18.74 17.26 H 28 C428 0
3271 H 93.86 19.55 15.94 H 28 C428 0
3272 C 89.58 16.52 18.56 C.3 29 C429 0
3273 C 90.55 17.42 19.02 C.3 29 C429 0
3274 H 89.02 16.27 19.28 H 29 C429 0
3275 H 91.15 16.97 19.62 H 29 C429 0
3276 H 90.13 18.14 19.47 H 29 C429 0
3277 C1 91.35 17.96 17.82 C.3 29 C429 0
3278 O2 91.56 19.17 17.72 O.3 29 C429 0
3279 O3 91.83 17.11 16.88 O.3 29 C429 0
3280 C 90.28 15.26 18 C.3 29 C429 0
3281 H 89.62 14.65 17.69 H 29 C429 0
3282 H 90.84 15.51 17.28 H 29 C429 0
3283 H 90.79 14.85 18.68 H 29 C429 0
3284 C 86.52 17.58 15.74 C.3 29 C429 0
3285 C 87.49 16.63 15.38 C.3 29 C429 0
3286 H 85.95 17.74 14.99 H 29 C429 0
3287 H 88.08 17.01 14.74 H 29 C429 0
3288 H 87.06 15.87 15.01 H 29 C429 0
3289 C1 88.28 16.22 16.64 C.3 29 C429 0
3290 O2 88.49 15.03 16.87 O.3 29 C429 0
3291 O3 88.76 17.17 17.48 O.3 29 C429 0
3292 C 87.21 18.89 16.16 C.3 29 C429 0
3293 H 86.55 19.53 16.4 H 29 C429 0
3294 H 87.77 18.72 16.91 H 29 C429 0
3295 H 87.73 19.22 15.44 H 29 C429 0
3296 C 83.45 16.84 18.66 C.3 29 C429 0
3297 C 84.42 17.81 18.91 C.3 29 C429 0
3298 H 82.88 16.75 19.42 H 29 C429 0
3299 H 85.01 17.51 19.59 H 29 C429 0
3300 H 84 18.62 19.2 H 29 C429 0
3301 C1 85.22 18.09 17.62 C.3 29 C429 0
3302 O2 85.42 19.24 17.26 O.3 29 C429 0
3303 O3 85.69 17.05 16.89 O.3 29 C429 0
3304 C 84.14 15.49 18.39 C.3 29 C429 0
3305 H 83.48 14.82 18.22 H 29 C429 0
3306 H 84.71 15.57 17.63 H 29 C429 0
3307 H 84.66 15.24 19.14 H 29 C429 0
3308 C 80.38 17.25 15.67 C.3 29 C429 0
3309 C 81.35 16.25 15.54 C.3 29 C429 0
3310 H 79.82 17.25 14.91 H 29 C429 0
3311 H 81.94 16.48 14.83 H 29 C429 0
3312 H 80.93 15.42 15.34 H 29 C429 0
3313 C1 82.15 16.12 16.85 C.3 29 C429 0
3314 O2 82.36 15.01 17.34 O.3 29 C429 0
3315 O3 82.63 17.24 17.46 O.3 29 C429 0
3316 C 81.07 18.62 15.8 C.3 29 C429 0
3317 H 80.41 19.3 15.9 H 29 C429 0
3318 H 81.64 18.62 16.56 H 29 C429 0
3319 H 81.59 18.79 15.02 H 29 C429 0
3320 C 77.31 17.17 18.69 C.3 29 C429 0
3321 C 78.28 18.18 18.72 C.3 29 C429 0
3322 H 76.75 17.25 19.45 H 29 C429 0
3323 H 78.88 18.03 19.45 H 29 C429 0
3324 H 77.86 19.02 18.82 H 29 C429 0
3325 C1 79.08 18.16 17.4 C.3 29 C429 0
3326 O2 79.29 19.21 16.79 O.3 29 C429 0
3327 O3 79.56 16.98 16.91 O.3 29 C429 0
3328 C 78.01 15.79 18.72 C.3 29 C429 0
3329 H 77.35 15.11 18.7 H 29 C429 0
3330 H 78.57 15.71 17.96 H 29 C429 0
3331 H 78.52 15.71 19.51 H 29 C429 0
3332 C 74.25 16.92 15.68 C.3 29 C429 0
3333 C 75.22 15.91 15.77 C.3 29 C429 0
3334 H 73.68 16.75 14.94 H 29 C429 0
3335 H 75.81 15.97 15.03 H 29 C429 0
3336 H 74.79 15.06 15.76 H 29 C429 0
3337 C1 76.01 16.07 17.08 C.3 29 C429 0
3338 O2 76.22 15.1 17.8 O.3 29 C429 0
3339 O3 76.49 17.3 17.43 O.3 29 C429 0
3340 C 74.94 18.28 15.51 C.3 29 C429 0
3341 H 74.28 18.96 15.45 H 29 C429 0
3342 H 75.5 18.45 16.25 H 29 C429 0
3343 H 75.46 18.27 14.71 H 29 C429 0
3344 C 71.18 17.5 18.65 C.3 29 C429 0
3345 C 72.15 18.49 18.45 C.3 29 C429 0
3346 H 70.61 17.75 19.37 H 29 C429 0
3347 H 72.74 18.51 19.19 H 29 C429 0
3348 H 71.73 19.34 18.36 H 29 C429 0
3349 C1 72.95 18.18 17.17 C.3 29 C429 0
3350 O2 73.15 19.07 16.34 O.3 29 C429 0
3351 O3 73.42 16.93 16.95 O.3 29 C429 0
3352 C 71.87 16.16 18.97 C.3 29 C429 0
3353 H 71.21 15.49 19.11 H 29 C429 0
3354 H 72.44 15.92 18.25 H 29 C429 0
3355 H 72.39 16.26 19.76 H 29 C429 0
3356 C 68.11 16.59 15.77 C.3 29 C429 0
3357 C 69.08 15.63 16.07 C.3 29 C429 0
3358 H 67.55 16.26 15.08 H 29 C429 0
3359 H 69.67 15.53 15.33 H 29 C429 0
3360 H 68.66 14.8 16.25 H 29 C429 0
3361 C1 69.88 16.08 17.31 C.3 29 C429 0
3362 O2 70.09 15.29 18.23 O.3 29 C429 0
3363 O3 70.36 17.35 17.39 O.3 29 C429 0
3364 C 68.8 17.88 15.29 C.3 29 C429 0
3365 H 68.14 18.54 15.09 H 29 C429 0
3366 H 69.37 18.21 15.98 H 29 C429 0
3367 H 69.32 17.7 14.52 H 29 C429 0
3368 C 65.04 17.81 18.53 C.3 29 C429 0
3369 C 66.01 18.74 18.12 C.3 29 C429 0
3370 H 64.48 18.22 19.18 H 29 C429 0
3371 H 66.6 18.92 18.84 H 29 C429 0
3372 H 65.59 19.54 17.85 H 29 C429 0
3373 C1 66.81 18.16 16.94 C.3 29 C429 0
3374 O2 67.02 18.84 15.94 O.3 29 C429 0
3375 O3 67.29 16.88 17 O.3 29 C429 0
3376 C 65.74 16.58 19.14 C.3 29 C429 0
3377 H 65.08 15.96 19.42 H 29 C429 0
3378 H 66.3 16.18 18.49 H 29 C429 0
3379 H 66.25 16.85 19.89 H 29 C429 0
3380 C 61.98 16.3 15.92 C.3 29 C429 0
3381 C 62.95 15.42 16.43 C.3 29 C429 0
3382 H 61.41 15.82 15.32 H 29 C429 0
3383 H 63.54 15.16 15.73 H 29 C429 0
3384 H 62.52 14.65 16.79 H 29 C429 0
3385 C1 63.74 16.13 17.54 C.3 29 C429 0
3386 O2 63.95 15.56 18.61 O.3 29 C429 0
3387 O3 64.22 17.39 17.34 O.3 29 C429 0
3388 C 62.67 17.45 15.17 C.3 29 C429 0
3389 H 62.01 18.04 14.83 H 29 C429 0
3390 H 63.23 17.92 15.77 H 29 C429 0
3391 H 63.19 17.1 14.46 H 29 C429 0
3392 C 58.91 18.09 18.34 C.3 29 C429 0
3393 C 59.88 18.9 17.74 C.3 29 C429 0
3394 H 58.34 18.63 18.89 H 29 C429 0
3395 H 60.47 19.24 18.41 H 29 C429 0
3396 H 59.46 19.63 17.3 H 29 C429 0
3397 C1 60.68 18.08 16.72 C.3 29 C429 0
3398 O2 60.88 18.53 15.59 O.3 29 C429 0
3399 O3 61.15 16.85 17.06 O.3 29 C429 0
3400 C 59.6 17.03 19.21 C.3 29 C429 0
3401 H 58.94 16.48 19.62 H 29 C429 0
3402 H 60.17 16.49 18.67 H 29 C429 0
3403 H 60.12 17.45 19.89 H 29 C429 0
3404 C 55.84 16.04 16.13 C.3 29 C429 0
3405 C 56.81 15.3 16.82 C.3 29 C429 0
3406 H 55.27 15.45 15.65 H 29 C429 0
3407 H 57.4 14.89 16.2 H 29 C429 0
3408 H 56.39 14.63 17.34 H 29 C429 0
3409 C1 57.61 16.23 17.75 C.3 29 C429 0
3410 O2 57.81 15.91 18.92 O.3 29 C429 0
3411 O3 58.09 17.42 17.27 O.3 29 C429 0
3412 C 56.53 17 15.15 C.3 29 C429 0
3413 H 55.87 17.51 14.69 H 29 C429 0
3414 H 57.1 17.59 15.63 H 29 C429 0
3415 H 57.05 16.51 14.53 H 29 C429 0
3416 C 52.77 18.33 18.1 C.3 29 C429 0
3417 C 53.74 18.99 17.34 C.3 29 C429 0
3418 H 52.21 18.97 18.52 H 29 C429 0
3419 H 54.33 19.46 17.91 H 29 C429 0
3420 H 53.32 19.6 16.75 H 29 C429 0
3421 C1 54.54 17.95 16.52 C.3 29 C429 0
3422 O2 54.75 18.14 15.32 O.3 29 C429 0
3423 O3 55.02 16.83 17.12 O.3 29 C429 0
3424 C 53.46 17.48 19.19 C.3 29 C429 0
3425 H 52.81 17.03 19.7 H 29 C429 0
3426 H 54.03 16.84 18.77 H 29 C429 0
3427 H 53.98 18.04 19.75 H 29 C429 0
3428 C 49.71 15.84 16.4 C.3 29 C429 0
3429 C 50.68 15.26 17.23 C.3 29 C429 0
3430 H 49.14 15.15 16.06 H 29 C429 0
3431 H 51.27 14.73 16.71 H 29 C429 0
3432 H 50.25 14.72 17.89 H 29 C429 0
3433 C1 51.47 16.38 17.93 C.3 29 C429 0
3434 O2 51.68 16.33 19.14 O.3 29 C429 0
3435 O3 51.95 17.43 17.21 O.3 29 C429 0
3436 C 50.4 16.56 15.23 C.3 29 C429 0
3437 H 49.74 16.95 14.66 H 29 C429 0
3438 H 50.96 17.24 15.57 H 29 C429 0
3439 H 50.91 15.94 14.73 H 29 C429 0
3440 C 46.64 18.5 17.82 C.3 29 C429 0
3441 C 47.61 18.98 16.93 C.3 29 C429 0
3442 H 46.07 19.22 18.08 H 29 C429 0
3443 H 48.2 19.56 17.38 H 29 C429 0
3444 H 47.19 19.44 16.22 H 29 C429 0
3445 C1 48.41 17.79 16.36 C.3 29 C429 0
3446 O2 48.61 17.71 15.15 O.3 29 C429 0
3447 O3 48.88 16.82 17.19 O.3 29 C429 0
3448 C 47.33 17.91 19.06 C.3 29 C429 0
3449 H 46.67 17.59 19.66 H 29 C429 0
3450 H 47.9 17.19 18.8 H 29 C429 0
3451 H 47.85 18.58 19.48 H 29 C429 0
3452 C 43.57 15.7 16.7 C.3 29 C429 0
3453 C 44.54 15.32 17.64 C.3 29 C429 0
3454 H 43.01 14.95 16.52 H 29 C429 0
3455 H 45.13 14.69 17.25 H 29 C429 0
3456 H 44.12 14.94 18.4 H 29 C429 0
3457 C1 45.34 16.57 18.08 C.3 29 C429 0
3458 O2 45.54 16.78 19.27 O.3 29 C429 0
3459 O3 45.82 17.43 17.14 O.3 29 C429 0
3460 C 44.26 16.15 15.4 C.3 29 C429 0
3461 H 43.6 16.4 14.77 H 29 C429 0
3462 H 44.83 16.89 15.58 H 29 C429 0
3463 H 44.78 15.43 15.05 H 29 C429 0
3464 C 40.5 18.61 17.5 C.3 29 C429 0
3465 C 41.47 18.87 16.53 C.3 29 C429 0
3466 H 39.94 19.36 17.6 H 29 C429 0
3467 H 42.06 19.55 16.84 H 29 C429 0
3468 H 41.05 19.17 15.73 H 29 C429 0
3469 C1 42.27 17.59 16.23 C.3 29 C429 0
3470 O2 42.48 17.25 15.07 O.3 29 C429 0
3471 O3 42.75 16.83 17.26 O.3 29 C429 0
3472 C 41.19 18.3 18.84 C.3 29 C429 0
3473 H 40.54 18.12 19.5 H 29 C429 0
3474 H 41.76 17.55 18.74 H 29 C429 0
3475 H 41.71 19.05 19.11 H 29 C429 0
3476 C 37.44 15.63 17.03 C.3 29 C429 0
3477 C 38.41 15.47 18.03 C.3 29 C429 0
3478 H 36.87 14.86 17.02 H 29 C429 0
3479 H 39 14.76 17.79 H 29 C429 0
3480 H 37.98 15.26 18.85 H 29 C429 0
3481 C1 39.2 16.78 18.18 C.3 29 C429 0
3482 O2 39.41 17.25 19.3 O.3 29 C429 0
3483 O3 39.68 17.42 17.08 O.3 29 C429 0
3484 C 38.13 15.78 15.66 C.3 29 C429 0
3485 H 37.47 15.89 14.99 H 29 C429 0
3486 H 38.69 16.54 15.68 H 29 C429 0
3487 H 38.64 15 15.48 H 29 C429 0
3488 C 34.37 18.64 17.17 C.3 29 C429 0
3489 C 35.34 18.69 16.16 C.3 29 C429 0
3490 H 33.8 19.4 17.1 H 29 C429 0
3491 H 35.93 19.41 16.32 H 29 C429 0
3492 H 34.91 18.8 15.32 H 29 C429 0
3493 C1 36.14 17.37 16.15 C.3 29 C429 0
3494 O2 36.34 16.78 15.09 O.3 29 C429 0
3495 O3 36.61 16.86 17.32 O.3 29 C429 0
3496 C 35.06 18.64 18.54 C.3 29 C429 0
3497 H 34.4 18.61 19.23 H 29 C429 0
3498 H 35.62 17.88 18.61 H 29 C429 0
3499 H 35.58 19.43 18.64 H 29 C429 0
3500 C 31.3 15.63 17.37 C.3 29 C429 0
3501 C 32.27 15.7 18.37 C.3 29 C429 0
3502 H 30.73 14.88 17.52 H 29 C429 0
3503 H 32.86 14.95 18.29 H 29 C429 0
3504 H 31.85 15.67 19.22 H 29 C429 0
3505 C1 33.07 17.01 18.23 C.3 29 C429 0
3506 O2 33.27 17.71 19.22 O.3 29 C429 0
3507 O3 33.54 17.38 17.02 O.3 29 C429 0
3508 C 31.99 15.48 16 C.3 29 C429 0
3509 H 31.33 15.43 15.31 H 29 C429 0
3510 H 32.56 16.23 15.84 H 29 C429 0
3511 H 32.51 14.68 15.99 H 29 C429 0
3512 C 28.23 18.6 16.84 C.3 29 C429 0
3513 C 29.2 18.43 15.84 C.3 29 C429 0
3514 H 27.67 19.33 16.6 H 29 C429 0
3515 H 29.79 19.17 15.84 H 29 C429 0
3516 H 28.78 18.35 15 H 29 C429 0
3517 C1 30 17.14 16.13 C.3 29 C429 0
3518 O2 30.21 16.33 15.22 O.3 29 C429 0
3519 O3 30.48 16.9 17.38 O.3 29 C429 0
3520 C 28.92 18.9 18.18 C.3 29 C429 0
3521 H 28.27 19.02 18.85 H 29 C429 0
3522 H 29.49 18.18 18.41 H 29 C429 0
3523 H 29.44 19.7 18.1 H 29 C429 0
3524 C 25.17 15.71 17.69 C.3 29 C429 0
3525 C 26.14 15.99 18.66 C.3 29 C429 0
3526 H 24.6 15.01 18.01 H 29 C429 0
3527 H 26.73 15.25 18.74 H 29 C429 0
3528 H 25.71 16.16 19.49 H 29 C429 0
3529 C1 26.93 17.24 18.23 C.3 29 C429 0
3530 O2 27.14 18.14 19.04 O.3 29 C429 0
3531 O3 27.41 17.34 16.97 O.3 29 C429 0
3532 C 25.86 15.26 16.39 C.3 29 C429 0
3533 H 25.2 15.07 15.73 H 29 C429 0
3534 H 26.42 15.95 16.08 H 29 C429 0
3535 H 26.37 14.48 16.56 H 29 C429 0
3536 C 22.1 18.49 16.52 C.3 29 C429 0
3537 C 23.07 18.1 15.59 C.3 29 C429 0
3538 H 21.53 19.15 16.13 H 29 C429 0
3539 H 23.66 18.82 15.42 H 29 C429 0
3540 H 22.64 17.84 14.78 H 29 C429 0
3541 C1 23.87 16.91 16.15 C.3 29 C429 0
3542 O2 24.07 15.92 15.45 O.3 29 C429 0
3543 O3 24.34 16.94 17.42 O.3 29 C429 0
3544 C 22.79 19.08 17.77 C.3 29 C429 0
3545 H 22.13 19.35 18.4 H 29 C429 0
3546 H 23.35 18.42 18.15 H 29 C429 0
3547 H 23.31 19.84 17.51 H 29 C429 0
3548 C 19.03 15.85 17.99 C.3 29 C429 0
3549 C 20 16.35 18.87 C.3 29 C429 0
3550 H 18.46 15.25 18.45 H 29 C429 0
3551 H 20.59 15.64 19.12 H 29 C429 0
3552 H 19.58 16.69 19.65 H 29 C429 0
3553 C1 20.8 17.47 18.18 C.3 29 C429 0
3554 O2 21 18.53 18.78 O.3 29 C429 0
3555 O3 21.27 17.29 16.92 O.3 29 C429 0
3556 C 19.72 15.13 16.82 C.3 29 C429 0
3557 H 19.06 14.8 16.22 H 29 C429 0
3558 H 20.29 15.74 16.36 H 29 C429 0
3559 H 20.24 14.41 17.16 H 29 C429 0
3560 C 15.96 18.31 16.24 C.3 29 C429 0
3561 C 16.93 17.73 15.42 C.3 29 C429 0
3562 H 15.4 18.87 15.72 H 29 C429 0
3563 H 17.52 18.4 15.1 H 29 C429 0
3564 H 16.51 17.3 14.68 H 29 C429 0
3565 C1 17.73 16.69 16.23 C.3 29 C429 0
3566 O2 17.94 15.57 15.76 O.3 29 C429 0
3567 O3 18.21 17 17.46 O.3 29 C429 0
3568 C 16.65 19.16 17.32 C.3 29 C429 0
3569 H 16 19.56 17.88 H 29 C429 0
3570 H 17.22 18.61 17.85 H 29 C429 0
3571 H 17.17 19.84 16.91 H 29 C429 0
3572 C 12.89 16.06 18.25 C.3 29 C429 0
3573 C 13.87 16.74 19.01 C.3 29 C429 0
3574 H 12.33 15.57 18.83 H 29 C429 0
3575 H 14.45 16.11 19.4 H 29 C429 0
3576 H 13.44 17.24 19.69 H 29 C429 0
3577 C1 14.66 17.68 18.09 C.3 29 C429 0
3578 O2 14.87 18.85 18.43 O.3 29 C429 0
3579 O3 15.14 17.23 16.9 O.3 29 C429 0
3580 C 13.59 15.1 17.27 C.3 29 C429 0
3581 H 12.93 14.64 16.76 H 29 C429 0
3582 H 14.15 15.59 16.69 H 29 C429 0
3583 H 14.1 14.47 17.76 H 29 C429 0
3584 C 9.83 18.08 16 C.3 29 C429 0
3585 C 10.8 17.32 15.33 C.3 29 C429 0
3586 H 9.26 18.5 15.37 H 29 C429 0
3587 H 11.39 17.91 14.87 H 29 C429 0
3588 H 10.37 16.74 14.71 H 29 C429 0
3589 C1 11.59 16.49 16.35 C.3 29 C429 0
3590 O2 11.8 15.29 16.13 O.3 29 C429 0
3591 O3 12.07 17.07 17.48 O.3 29 C429 0
3592 C 10.52 19.14 16.87 C.3 29 C429 0
3593 H 9.86 19.65 17.33 H 29 C429 0
3594 H 11.08 18.72 17.51 H 29 C429 0
3595 H 11.04 19.72 16.32 H 29 C429 0
3596 C 6.76 16.33 18.46 C.3 29 C429 0
3597 C 7.73 17.15 19.05 C.3 29 C429 0
3598 H 6.19 15.97 19.14 H 29 C429 0
3599 H 8.32 16.62 19.57 H 29 C429 0
3600 H 7.31 17.79 19.6 H 29 C429 0
3601 C1 8.53 17.87 17.94 C.3 29 C429 0
3602 O2 8.73 19.08 18.02 O.3 29 C429 0
3603 O3 9 17.17 16.88 O.3 29 C429 0
3604 C 7.45 15.17 17.71 C.3 29 C429 0
3605 H 6.79 14.61 17.32 H 29 C429 0
3606 H 8.02 15.52 17.04 H 29 C429 0
3607 H 7.97 14.66 18.33 H 29 C429 0
3608 H 3.17 17.36 16.49 H 30 C430 0
3609 C 3.69 17.79 15.82 C.3 30 C430 0
3610 C 4.66 16.91 15.33 C.3 30 C430 0
3611 H 3.13 18.07 15.11 H 30 C430 0
3612 H 5.25 17.38 14.76 H 30 C430 0
3613 H 4.24 16.21 14.85 H 30 C430 0
3614 C1 5.46 16.32 16.51 C.3 30 C430 0
3615 O2 5.67 15.11 16.57 O.3 30 C430 0
3616 O3 5.94 17.13 17.49 O.3 30 C430 0
3617 C 4.38 19.03 16.44 C.3 30 C430 0
3618 H 3.72 19.62 16.77 H 30 C430 0
3619 H 4.95 18.75 17.15 H 30 C430 0
3620 H 4.9 19.46 15.77 H 30 C430 0
3621 C 92.65 17.88 27.3 C.3 31 C431 0
3622 C 93.62 17.04 26.75 C.3 31 C431 0
3623 H 92.09 18.21 26.61 H 31 C431 0
3624 H 94.21 17.55 26.21 H 31 C431 0
3625 H 93.2 16.37 26.22 H 31 C431 0
3626 C1 94.42 16.36 27.88 C.3 31 C431 0
3627 O2 94.63 15.15 27.85 O.3 31 C431 0
3628 O3 94.9 17.1 28.91 O.3 31 C431 0
3629 H5 95.42 16.55 29.49 H 31 C431 0
3630 C 93.34 19.06 28.01 C.3 31 C431 0
3631 H 92.68 19.64 28.38 H 31 C431 0
3632 H 93.91 18.74 28.69 H 31 C431 0
3633 H 93.86 19.55 27.37 H 31 C431 0
3634 C 89.58 16.52 29.99 C.3 32 C432 0
3635 C 90.55 17.42 30.45 C.3 32 C432 0
3636 H 89.02 16.27 30.71 H 32 C432 0
3637 H 91.15 16.97 31.05 H 32 C432 0
3638 H 90.13 18.14 30.9 H 32 C432 0
3639 C1 91.35 17.96 29.25 C.3 32 C432 0
3640 O2 91.56 19.17 29.15 O.3 32 C432 0
3641 O3 91.83 17.11 28.31 O.3 32 C432 0
3642 C 90.28 15.26 29.43 C.3 32 C432 0
3643 H 89.62 14.65 29.12 H 32 C432 0
3644 H 90.84 15.51 28.71 H 32 C432 0
3645 H 90.79 14.85 30.11 H 32 C432 0
3646 C 86.52 17.58 27.17 C.3 32 C432 0
3647 C 87.49 16.63 26.81 C.3 32 C432 0
3648 H 85.95 17.74 26.42 H 32 C432 0
3649 H 88.08 17.01 26.17 H 32 C432 0
3650 H 87.06 15.87 26.44 H 32 C432 0
3651 C1 88.28 16.22 28.07 C.3 32 C432 0
3652 O2 88.49 15.03 28.3 O.3 32 C432 0
3653 O3 88.76 17.17 28.91 O.3 32 C432 0
3654 C 87.21 18.89 27.59 C.3 32 C432 0
3655 H 86.55 19.53 27.83 H 32 C432 0
3656 H 87.77 18.72 28.34 H 32 C432 0
3657 H 87.73 19.22 26.87 H 32 C432 0
3658 C 83.45 16.84 30.09 C.3 32 C432 0
3659 C 84.42 17.81 30.34 C.3 32 C432 0
3660 H 82.88 16.75 30.85 H 32 C432 0
3661 H 85.01 17.51 31.02 H 32 C432 0
3662 H 84 18.62 30.63 H 32 C432 0
3663 C1 85.22 18.09 29.05 C.3 32 C432 0
3664 O2 85.42 19.24 28.69 O.3 32 C432 0
3665 O3 85.69 17.05 28.32 O.3 32 C432 0
3666 C 84.14 15.49 29.82 C.3 32 C432 0
3667 H 83.48 14.82 29.65 H 32 C432 0
3668 H 84.71 15.57 29.06 H 32 C432 0
3669 H 84.66 15.24 30.57 H 32 C432 0
3670 C 80.38 17.25 27.1 C.3 32 C432 0
3671 C 81.35 16.25 26.97 C.3 32 C432 0
3672 H 79.82 17.25 26.34 H 32 C432 0
3673 H 81.94 16.48 26.26 H 32 C432 0
3674 H 80.93 15.42 26.77 H 32 C432 0
3675 C1 82.15 16.12 28.28 C.3 32 C432 0
3676 O2 82.36 15.01 28.77 O.3 32 C432 0
3677 O3 82.63 17.24 28.89 O.3 32 C432 0
3678 C 81.07 18.62 27.23 C.3 32 C432 0
3679 H 80.41 19.3 27.33 H 32 C432 0
3680 H 81.64 18.62 27.99 H 32 C432 0
3681 H 81.59 18.79 26.45 H 32 C432 0
3682 C 77.31 17.17 30.12 C.3 32 C432 0
3683 C 78.28 18.18 30.15 C.3 32 C432 0
3684 H 76.75 17.25 30.88 H 32 C432 0
3685 H 78.88 18.03 30.88 H 32 C432 0
3686 H 77.86 19.02 30.25 H 32 C432 0
3687 C1 79.08 18.16 28.83 C.3 32 C432 0
3688 O2 79.29 19.21 28.22 O.3 32 C432 0
3689 O3 79.56 16.98 28.34 O.3 32 C432 0
3690 C 78.01 15.79 30.15 C.3 32 C432 0
3691 H 77.35 15.11 30.13 H 32 C432 0
3692 H 78.57 15.71 29.39 H 32 C432 0
3693 H 78.52 15.71 30.94 H 32 C432 0
3694 C 74.25 16.92 27.11 C.3 32 C432 0
3695 C 75.22 15.91 27.2 C.3 32 C432 0
3696 H 73.68 16.75 26.37 H 32 C432 0
3697 H 75.81 15.97 26.46 H 32 C432 0
3698 H 74.79 15.06 27.19 H 32 C432 0
3699 C1 76.01 16.07 28.51 C.3 32 C432 0
3700 O2 76.22 15.1 29.23 O.3 32 C432 0
3701 O3 76.49 17.3 28.86 O.3 32 C432 0
3702 C 74.94 18.28 26.94 C.3 32 C432 0
3703 H 74.28 18.96 26.88 H 32 C432 0
3704 H 75.5 18.45 27.68 H 32 C432 0
3705 H 75.46 18.27 26.14 H 32 C432 0
3706 C 71.18 17.5 30.08 C.3 32 C432 0
3707 C 72.15 18.49 29.88 C.3 32 C432 0
3708 H 70.61 17.75 30.8 H 32 C432 0
3709 H 72.74 18.51 30.62 H 32 C432 0
3710 H 71.73 19.34 29.79 H 32 C432 0
3711 C1 72.95 18.18 28.6 C.3 32 C432 0
3712 O2 73.15 19.07 27.77 O.3 32 C432 0
3713 O3 73.42 16.93 28.38 O.3 32 C432 0
3714 C 71.87 16.16 30.4 C.3 32 C432 0
3715 H 71.21 15.49 30.54 H 32 C432 0
3716 H 72.44 15.92 29.68 H 32 C432 0
3717 H 72.39 16.26 31.19 H 32 C432 0
3718 C 68.11 16.59 27.2 C.3 32 C432 0
3719 C 69.08 15.63 27.5 C.3 32 C432 0
3720 H 67.55 16.26 26.51 H 32 C432 0
3721 H 69.67 15.53 26.76 H 32 C432 0
3722 H 68.66 14.8 27.68 H 32 C432 0
3723 C1 69.88 16.08 28.74 C.3 32 C432 0
3724 O2 70.09 15.29 29.66 O.3 32 C432 0
3725 O3 70.36 17.35 28.82 O.3 32 C432 0
3726 C 68.8 17.88 26.72 C.3 32 C432 0
3727 H 68.14 18.54 26.52 H 32 C432 0
3728 H 69.37 18.21 27.41 H 32 C432 0
3729 H 69.32 17.7 25.95 H 32 C432 0
3730 C 65.04 17.81 29.96 C.3 32 C432 0
3731 C 66.01 18.74 29.55 C.3 32 C432 0
3732 H 64.48 18.22 30.61 H 32 C432 0
3733 H 66.6 18.92 30.27 H 32 C432 0
3734 H 65.59 19.54 29.28 H 32 C432 0
3735 C1 66.81 18.16 28.37 C.3 32 C432 0
3736 O2 67.02 18.84 27.37 O.3 32 C432 0
3737 O3 67.29 16.88 28.43 O.3 32 C432 0
3738 C 65.74 16.58 30.57 C.3 32 C432 0
3739 H 65.08 15.96 30.85 H 32 C432 0
3740 H 66.3 16.18 29.92 H 32 C432 0
3741 H 66.25 16.85 31.32 H 32 C432 0
3742 C 61.98 16.3 27.35 C.3 32 C432 0
3743 C 62.95 15.42 27.86 C.3 32 C432 0
3744 H 61.41 15.82 26.75 H 32 C432 0
3745 H 63.54 15.16 27.16 H 32 C432 0
3746 H 62.52 14.65 28.22 H 32 C432 0
3747 C1 63.74 16.13 28.97 C.3 32 C432 0
3748 O2 63.95 15.56 30.04 O.3 32 C432 0
3749 O3 64.22 17.39 28.77 O.3 32 C432 0
3750 C 62.67 17.45 26.6 C.3 32 C432 0
3751 H 62.01 18.04 26.26 H 32 C432 0
3752 H 63.23 17.92 27.2 H 32 C432 0
3753 H 63.19 17.1 25.89 H 32 C432 0
3754 C 58.91 18.09 29.77 C.3 32 C432 0
3755 C 59.88 18.9 29.17 C.3 32 C432 0
3756 H 58.34 18.63 30.32 H 32 C432 0
3757 H 60.47 19.24 29.84 H 32 C432 0
3758 H 59.46 19.63 28.73 H 32 C432 0
3759 C1 60.68 18.08 28.15 C.3 32 C432 0
3760 O2 60.88 18.53 27.02 O.3 32 C432 0
3761 O3 61.15 16.85 28.49 O.3 32 C432 0
3762 C 59.6 17.03 30.64 C.3 32 C432 0
3763 H 58.94 16.48 31.05 H 32 C432 0
3764 H 60.17 16.49 30.1 H 32 C432 0
3765 H 60.12 17.45 31.32 H 32 C432 0
3766 C 55.84 16.04 27.56 C.3 32 C432 0
3767 C 56.81 15.3 28.25 C.3 32 C432 0
3768 H 55.27 15.45 27.08 H 32 C432 0
3769 H 57.4 14.89 27.63 H 32 C432 0
3770 H 56.39 14.63 28.77 H 32 C432 0
3771 C1 57.61 16.23 29.18 C.3 32 C432 0
3772 O2 57.81 15.91 30.35 O.3 32 C432 0
3773 O3 58.09 17.42 28.7 O.3 32 C432 0
3774 C 56.53 17 26.58 C.3 32 C432 0
3775 H 55.87 17.51 26.12 H 32 C432 0
3776 H 57.1 17.59 27.06 H 32 C432 0
3777 H 57.05 16.51 25.96 H 32 C432 0
3778 C 52.77 18.33 29.53 C.3 32 C432 0
3779 C 53.74 18.99 28.77 C.3 32 C432 0
3780 H 52.21 18.97 29.95 H 32 C432 0
3781 H 54.33 19.46 29.34 H 32 C432 0
3782 H 53.32 19.6 28.18 H 32 C432 0
3783 C1 54.54 17.95 27.95 C.3 32 C432 0
3784 O2 54.75 18.14 26.75 O.3 32 C432 0
3785 O3 55.02 16.83 28.55 O.3 32 C432 0
3786 C 53.46 17.48 30.62 C.3 32 C432 0
3787 H 52.81 17.03 31.13 H 32 C432 0
3788 H 54.03 16.84 30.2 H 32 C432 0
3789 H 53.98 18.04 31.18 H 32 C432 0
3790 C 49.71 15.84 27.83 C.3 32 C432 0
3791 C 50.68 15.26 28.66 C.3 32 C432 0
3792 H 49.14 15.15 27.49 H 32 C432 0
3793 H 51.27 14.73 28.14 H 32 C432 0
3794 H 50.25 14.72 29.32 H 32 C432 0
3795 C1 51.47 16.38 29.36 C.3 32 C432 0
3796 O2 51.68 16.33 30.57 O.3 32 C432 0
3797 O3 51.95 17.43 28.64 O.3 32 C432 0
3798 C 50.4 16.56 26.66 C.3 32 C432 0
3799 H 49.74 16.95 26.09 H 32 C432 0
3800 H 50.96 17.24 27 H 32 C432 0
3801 H 50.91 15.94 26.16 H 32 C432 0
3802 C 46.64 18.5 29.25 C.3 32 C432 0
3803 C 47.61 18.98 28.36 C.3 32 C432 0
3804 H 46.07 19.22 29.51 H 32 C432 0
3805 H 48.2 19.56 28.81 H 32 C432 0
3806 H 47.19 19.44 27.65 H 32 C432 0
3807 C1 48.41 17.79 27.79 C.3 32 C432 0
3808 O2 48.61 17.71 26.58 O.3 32 C432 0
3809 O3 48.88 16.82 28.62 O.3 32 C432 0
3810 C 47.33 17.91 30.49 C.3 32 C432 0
3811 H 46.67 17.59 31.09 H 32 C432 0
3812 H 47.9 17.19 30.23 H 32 C432 0
3813 H 47.85 18.58 30.91 H 32 C432 0
3814 C 43.57 15.7 28.13 C.3 32 C432 0
3815 C 44.54 15.32 29.07 C.3 32 C432 0
3816 H 43.01 14.95 27.95 H 32 C432 0
3817 H 45.13 14.69 28.68 H 32 C432 0
3818 H 44.12 14.94 29.83 H 32 C432 0
3819 C1 45.34 16.57 29.51 C.3 32 C432 0
3820 O2 45.54 16.78 30.7 O.3 32 C432 0
3821 O3 45.82 17.43 28.57 O.3 32 C432 0
3822 C 44.26 16.15 26.83 C.3 32 C432 0
3823 H 43.6 16.4 26.2 H 32 C432 0
3824 H 44.83 16.89 27.01 H 32 C432 0
3825 H 44.78 15.43 26.48 H 32 C432 0
3826 C 40.5 18.61 28.93 C.3 32 C432 0
3827 C 41.47 18.87 27.96 C.3 32 C432 0
3828 H 39.94 19.36 29.03 H 32 C432 0
3829 H 42.06 19.55 28.27 H 32 C432 0
3830 H 41.05 19.17 27.16 H 32 C432 0
3831 C1 42.27 17.59 27.66 C.3 32 C432 0
3832 O2 42.48 17.25 26.5 O.3 32 C432 0
3833 O3 42.75 16.83 28.69 O.3 32 C432 0
3834 C 41.19 18.3 30.27 C.3 32 C432 0
3835 H 40.54 18.12 30.93 H 32 C432 0
3836 H 41.76 17.55 30.17 H 32 C432 0
3837 H 41.71 19.05 30.54 H 32 C432 0
3838 C 37.44 15.63 28.46 C.3 32 C432 0
3839 C 38.41 15.47 29.46 C.3 32 C432 0
3840 H 36.87 14.86 28.45 H 32 C432 0
3841 H 39 14.76 29.22 H 32 C432 0
3842 H 37.98 15.26 30.28 H 32 C432 0
3843 C1 39.2 16.78 29.61 C.3 32 C432 0
3844 O2 39.41 17.25 30.73 O.3 32 C432 0
3845 O3 39.68 17.42 28.51 O.3 32 C432 0
3846 C 38.13 15.78 27.09 C.3 32 C432 0
3847 H 37.47 15.89 26.42 H 32 C432 0
3848 H 38.69 16.54 27.11 H 32 C432 0
3849 H 38.64 15 26.91 H 32 C432 0
3850 C 34.37 18.64 28.6 C.3 32 C432 0
3851 C 35.34 18.69 27.59 C.3 32 C432 0
3852 H 33.8 19.4 28.53 H 32 C432 0
3853 H 35.93 19.41 27.75 H 32 C432 0
3854 H 34.91 18.8 26.75 H 32 C432 0
3855 C1 36.14 17.37 27.58 C.3 32 C432 0
3856 O2 36.34 16.78 26.52 O.3 32 C432 0
3857 O3 36.61 16.86 28.75 O.3 32 C432 0
3858 C 35.06 18.64 29.97 C.3 32 C432 0
3859 H 34.4 18.61 30.66 H 32 C432 0
3860 H 35.62 17.88 30.04 H 32 C432 0
3861 H 35.58 19.43 30.07 H 32 C432 0
3862 C 31.3 15.63 28.8 C.3 32 C432 0
3863 C 32.27 15.7 29.8 C.3 32 C432 0
3864 H 30.73 14.88 28.95 H 32 C432 0
3865 H 32.86 14.95 29.72 H 32 C432 0
3866 H 31.85 15.67 30.65 H 32 C432 0
3867 C1 33.07 17.01 29.66 C.3 32 C432 0
3868 O2 33.27 17.71 30.65 O.3 32 C432 0
3869 O3 33.54 17.38 28.45 O.3 32 C432 0
3870 C 31.99 15.48 27.43 C.3 32 C432 0
3871 H 31.33 15.43 26.74 H 32 C432 0
3872 H 32.56 16.23 27.27 H 32 C432 0
3873 H 32.51 14.68 27.42 H 32 C432 0
3874 C 28.23 18.6 28.27 C.3 32 C432 0
3875 C 29.2 18.43 27.27 C.3 32 C432 0
3876 H 27.67 19.33 28.03 H 32 C432 0
3877 H 29.79 19.17 27.27 H 32 C432 0
3878 H 28.78 18.35 26.43 H 32 C432 0
3879 C1 30 17.14 27.56 C.3 32 C432 0
3880 O2 30.21 16.33 26.65 O.3 32 C432 0
3881 O3 30.48 16.9 28.81 O.3 32 C432 0
3882 C 28.92 18.9 29.61 C.3 32 C432 0
3883 H 28.27 19.02 30.28 H 32 C432 0
3884 H 29.49 18.18 29.84 H 32 C432 0
3885 H 29.44 19.7 29.53 H 32 C432 0
3886 C 25.17 15.71 29.12 C.3 32 C432 0
3887 C 26.14 15.99 30.09 C.3 32 C432 0
3888 H 24.6 15.01 29.44 H 32 C432 0
3889 H 26.73 15.25 30.17 H 32 C432 0
3890 H 25.71 16.16 30.92 H 32 C432 0
3891 C1 26.93 17.24 29.66 C.3 32 C432 0
3892 O2 27.14 18.14 30.47 O.3 32 C432 0
3893 O3 27.41 17.34 28.4 O.3 32 C432 0
3894 C 25.86 15.26 27.82 C.3 32 C432 0
3895 H 25.2 15.07 27.16 H 32 C432 0
3896 H 26.42 15.95 27.51 H 32 C432 0
3897 H 26.37 14.48 27.99 H 32 C432 0
3898 C 22.1 18.49 27.95 C.3 32 C432 0
3899 C 23.07 18.1 27.02 C.3 32 C432 0
3900 H 21.53 19.15 27.56 H 32 C432 0
3901 H 23.66 18.82 26.85 H 32 C432 0
3902 H 22.64 17.84 26.21 H 32 C432 0
3903 C1 23.87 16.91 27.58 C.3 32 C432 0
3904 O2 24.07 15.92 26.88 O.3 32 C432 0
3905 O3 24.34 16.94 28.85 O.3 32 C432 0
3906 C 22.79 19.08 29.2 C.3 32 C432 0
3907 H 22.13 19.35 29.83 H 32 C432 0
3908 H 23.35 18.42 29.58 H 32 C432 0
3909 H 23.31 19.84 28.94 H 32 C432 0
3910 C 19.03 15.85 29.42 C.3 32 C432 0
3911 C 20 16.35 30.3 C.3 32 C432 0
3912 H 18.46 15.25 29.88 H 32 C432 0
3913 H 20.59 15.64 30.55 H 32 C432 0
3914 H 19.58 16.69 31.08 H 32 C432 0
3915 C1 20.8 17.47 29.61 C.3 32 C432 0
3916 O2 21 18.53 30.21 O.3 32 C432 0
3917 O3 21.27 17.29 28.35 O.3 32 C432 0
3918 C 19.72 15.13 28.25 C.3 32 C432 0
3919 H 19.06 14.8 27.65 H 32 C432 0
3920 H 20.29 15.74 27.79 H 32 C432 0
3921 H 20.24 14.41 28.59 H 32 C432 0
3922 C 15.96 18.31 27.67 C.3 32 C432 0
3923 C 16.93 17.73 26.85 C.3 32 C432 0
3924 H 15.4 18.87 27.15 H 32 C432 0
3925 H 17.52 18.4 26.53 H 32 C432 0
3926 H 16.51 17.3 26.11 H 32 C432 0
3927 C1 17.73 16.69 27.66 C.3 32 C432 0
3928 O2 17.94 15.57 27.19 O.3 32 C432 0
3929 O3 18.21 17 28.89 O.3 32 C432 0
3930 C 16.65 19.16 28.75 C.3 32 C432 0
3931 H 16 19.56 29.31 H 32 C432 0
3932 H 17.22 18.61 29.28 H 32 C432 0
3933 H 17.17 19.84 28.34 H 32 C432 0
3934 C 12.89 16.06 29.68 C.3 32 C432 0
3935 C 13.87 16.74 30.44 C.3 32 C432 0
3936 H 12.33 15.57 30.26 H 32 C432 0
3937 H 14.45 16.11 30.83 H 32 C432 0
3938 H 13.44 17.24 31.12 H 32 C432 0
3939 C1 14.66 17.68 29.52 C.3 32 C432 0
3940 O2 14.87 18.85 29.86 O.3 32 C432 0
3941 O3 15.14 17.23 28.33 O.3 32 C432 0
3942 C 13.59 15.1 28.7 C.3 32 C432 0
3943 H 12.93 14.64 28.19 H 32 C432 0
3944 H 14.15 15.59 28.12 H 32 C432 0
3945 H 14.1 14.47 29.19 H 32 C432 0
3946 C 9.83 18.08 27.43 C.3 32 C432 0
3947 C 10.8 17.32 26.76 C.3 32 C432 0
3948 H 9.26 18.5 26.8 H 32 C432 0
3949 H 11.39 17.91 26.3 H 32 C432 0
3950 H 10.37 16.74 26.14 H 32 C432 0
3951 C1 11.59 16.49 27.78 C.3 32 C432 0
3952 O2 11.8 15.29 27.56 O.3 32 C432 0
3953 O3 12.07 17.07 28.91 O.3 32 C432 0
3954 C 10.52 19.14 28.3 C.3 32 C432 0
3955 H 9.86 19.65 28.76 H 32 C432 0
3956 H 11.08 18.72 28.94 H 32 C432 0
3957 H 11.04 19.72 27.75 H 32 C432 0
3958 C 6.76 16.33 29.89 C.3 32 C432 0
3959 C 7.73 17.15 30.48 C.3 32 C432 0
3960 H 6.19 15.97 30.57 H 32 C432 0
3961 H 8.32 16.62 31 H 32 C432 0
3962 H 7.31 17.79 31.03 H 32 C432 0
3963 C1 8.53 17.87 29.37 C.3 32 C432 0
3964 O2 8.73 19.08 29.45 O.3 32 C432 0
3965 O3 9 17.17 28.31 O.3 32 C432 0
3966 C 7.45 15.17 29.14 C.3 32 C432 0
3967 H 6.79 14.61 28.75 H 32 C432 0
3968 H 8.02 15.52 28.47 H 32 C432 0
3969 H 7.97 14.66 29.76 H 32 C432 0
3970 H 3.17 17.36 27.92 H 33 C433 0
3971 C 3.69 17.79 27.25 C.3 33 C433 0
3972 C 4.66 16.91 26.76 C.3 33 C433 0
3973 H 3.13 18.07 26.54 H 33 C433 0
3974 H 5.25 17.38 26.19 H 33 C433 0
3975 H 4.24 16.21 26.28 H 33 C433 0
3976 C1 5.46 16.32 27.94 C.3 33 C433 0
3977 O2 5.67 15.11 28 O.3 33 C433 0
3978 O3 5.94 17.13 28.92 O.3 33 C433 0
3979 C 4.38 19.03 27.87 C.3 33 C433 0
3980 H 3.72 19.62 28.2 H 33 C433 0
3981 H 4.95 18.75 28.58 H 33 C433 0
3982 H 4.9 19.46 27.2 H 33 C433 0
3983 C 92.65 17.88 38.73 C.3 34 C434 0
3984 C 93.62 17.04 38.18 C.3 34 C434 0
3985 H 92.09 18.21 38.04 H 34 C434 0
3986 H 94.21 17.55 37.64 H 34 C434 0
3987 H 93.2 16.37 37.65 H 34 C434 0
3988 C1 94.42 16.36 39.31 C.3 34 C434 0
3989 O2 94.63 15.15 39.28 O.3 34 C434 0
3990 O3 94.9 17.1 40.34 O.3 34 C434 0
3991 H5 95.42 16.55 40.92 H 34 C434 0
3992 C 93.34 19.06 39.44 C.3 34 C434 0
3993 H 92.68 19.64 39.81 H 34 C434 0
3994 H 93.91 18.74 40.12 H 34 C434 0
3995 H 93.86 19.55 38.8 H 34 C434 0
3996 C 89.58 16.52 41.42 C.3 35 C435 0
3997 C 90.55 17.42 41.88 C.3 35 C435 0
3998 H 89.02 16.27 42.14 H 35 C435 0
3999 H 91.15 16.97 42.48 H 35 C435 0
4000 H 90.13 18.14 42.33 H 35 C435 0
4001 C1 91.35 17.96 40.68 C.3 35 C435 0
4002 O2 91.56 19.17 40.58 O.3 35 C435 0
4003 O3 91.83 17.11 39.74 O.3 35 C435 0
4004 C 90.28 15.26 40.86 C.3 35 C435 0
4005 H 89.62 14.65 40.55 H 35 C435 0
4006 H 90.84 15.51 40.14 H 35 C435 0
4007 H 90.79 14.85 41.54 H 35 C435 0
4008 C 86.52 17.58 38.6 C.3 35 C435 0
4009 C 87.49 16.63 38.24 C.3 35 C435 0
4010 H 85.95 17.74 37.85 H 35 C435 0
4011 H 88.08 17.01 37.6 H 35 C435 0
4012 H 87.06 15.87 37.87 H 35 C435 0
4013 C1 88.28 16.22 39.5 C.3 35 C435 0
4014 O2 88.49 15.03 39.73 O.3 35 C435 0
4015 O3 88.76 17.17 40.34 O.3 35 C435 0
4016 C 87.21 18.89 39.02 C.3 35 C435 0
4017 H 86.55 19.53 39.26 H 35 C435 0
4018 H 87.77 18.72 39.77 H 35 C435 0
4019 H 87.73 19.22 38.3 H 35 C435 0
4020 C 83.45 16.84 41.52 C.3 35 C435 0
4021 C 84.42 17.81 41.77 C.3 35 C435 0
4022 H 82.88 16.75 42.28 H 35 C435 0
4023 H 85.01 17.51 42.45 H 35 C435 0
4024 H 84 18.62 42.06 H 35 C435 0
4025 C1 85.22 18.09 40.48 C.3 35 C435 0
4026 O2 85.42 19.24 40.12 O.3 35 C435 0
4027 O3 85.69 17.05 39.75 O.3 35 C435 0
4028 C 84.14 15.49 41.25 C.3 35 C435 0
4029 H 83.48 14.82 41.08 H 35 C435 0
4030 H 84.71 15.57 40.49 H 35 C435 0
4031 H 84.66 15.24 42 H 35 C435 0
4032 C 80.38 17.25 38.53 C.3 35 C435 0
4033 C 81.35 16.25 38.4 C.3 35 C435 0
4034 H 79.82 17.25 37.77 H 35 C435 0
4035 H 81.94 16.48 37.69 H 35 C435 0
4036 H 80.93 15.42 38.2 H 35 C435 0
4037 C1 82.15 16.12 39.71 C.3 35 C435 0
4038 O2 82.36 15.01 40.2 O.3 35 C435 0
4039 O3 82.63 17.24 40.32 O.3 35 C435 0
4040 C 81.07 18.62 38.66 C.3 35 C435 0
4041 H 80.41 19.3 38.76 H 35 C435 0
4042 H 81.64 18.62 39.42 H 35 C435 0
4043 H 81.59 18.79 37.88 H 35 C435 0
4044 C 77.31 17.17 41.55 C.3 35 C435 0
4045 C 78.28 18.18 41.58 C.3 35 C435 0
4046 H 76.75 17.25 42.31 H 35 C435 0
4047 H 78.88 18.03 42.31 H 35 C435 0
4048 H 77.86 19.02 41.68 H 35 C435 0
4049 C1 79.08 18.16 40.26 C.3 35 C435 0
4050 O2 79.29 19.21 39.65 O.3 35 C435 0
4051 O3 79.56 16.98 39.77 O.3 35 C435 0
4052 C 78.01 15.79 41.58 C.3 35 C435 0
4053 H 77.35 15.11 41.56 H 35 C435 0
4054 H 78.57 15.71 40.82 H 35 C435 0
4055 H 78.52 15.71 42.37 H 35 C435 0
4056 C 74.25 16.92 38.54 C.3 35 C435 0
4057 C 75.22 15.91 38.63 C.3 35 C435 0
4058 H 73.68 16.75 37.8 H 35 C435 0
4059 H 75.81 15.97 37.89 H 35 C435 0
4060 H 74.79 15.06 38.62 H 35 C435 0
4061 C1 76.01 16.07 39.94 C.3 35 C435 0
4062 O2 76.22 15.1 40.66 O.3 35 C435 0
4063 O3 76.49 17.3 40.29 O.3 35 C435 0
4064 C 74.94 18.28 38.37 C.3 35 C435 0
4065 H 74.28 18.96 38.31 H 35 C435 0
4066 H 75.5 18.45 39.11 H 35 C435 0
4067 H 75.46 18.27 37.57 H 35 C435 0
4068 C 71.18 17.5 41.51 C.3 35 C435 0
4069 C 72.15 18.49 41.31 C.3 35 C435 0
4070 H 70.61 17.75 42.23 H 35 C435 0
4071 H 72.74 18.51 42.05 H 35 C435 0
4072 H 71.73 19.34 41.22 H 35 C435 0
4073 C1 72.95 18.18 40.03 C.3 35 C435 0
4074 O2 73.15 19.07 39.2 O.3 35 C435 0
4075 O3 73.42 16.93 39.81 O.3 35 C435 0
4076 C 71.87 16.16 41.83 C.3 35 C435 0
4077 H 71.21 15.49 41.97 H 35 C435 0
4078 H 72.44 15.92 41.11 H 35 C435 0
4079 H 72.39 16.26 42.62 H 35 C435 0
4080 C 68.11 16.59 38.63 C.3 35 C435 0
4081 C 69.08 15.63 38.93 C.3 35 C435 0
4082 H 67.55 16.26 37.94 H 35 C435 0
4083 H 69.67 15.53 38.19 H 35 C435 0
4084 H 68.66 14.8 39.11 H 35 C435 0
4085 C1 69.88 16.08 40.17 C.3 35 C435 0
4086 O2 70.09 15.29 41.09 O.3 35 C435 0
4087 O3 70.36 17.35 40.25 O.3 35 C435 0
4088 C 68.8 17.88 38.15 C.3 35 C435 0
4089 H 68.14 18.54 37.95 H 35 C435 0
4090 H 69.37 18.21 38.84 H 35 C435 0
4091 H 69.32 17.7 37.38 H 35 C435 0
4092 C 65.04 17.81 41.39 C.3 35 C435 0
4093 C 66.01 18.74 40.98 C.3 35 C435 0
4094 H 64.48 18.22 42.04 H 35 C435 0
4095 H 66.6 18.92 41.7 H 35 C435 0
4096 H 65.59 19.54 40.71 H 35 C435 0
4097 C1 66.81 18.16 39.8 C.3 35 C435 0
4098 O2 67.02 18.84 38.8 O.3 35 C435 0
4099 O3 67.29 16.88 39.86 O.3 35 C435 0
4100 C 65.74 16.58 42 C.3 35 C435 0
4101 H 65.08 15.96 42.28 H 35 C435 0
4102 H 66.3 16.18 41.35 H 35 C435 0
4103 H 66.25 16.85 42.75 H 35 C435 0
4104 C 61.98 16.3 38.78 C.3 35 C435 0
4105 C 62.95 15.42 39.29 C.3 35 C435 0
4106 H 61.41 15.82 38.18 H 35 C435 0
4107 H 63.54 15.16 38.59 H 35 C435 0
4108 H 62.52 14.65 39.65 H 35 C435 0
4109 C1 63.74 16.13 40.4 C.3 35 C435 0
4110 O2 63.95 15.56 41.47 O.3 35 C435 0
4111 O3 64.22 17.39 40.2 O.3 35 C435 0
4112 C 62.67 17.45 38.03 C.3 35 C435 0
4113 H 62.01 18.04 37.69 H 35 C435 0
4114 H 63.23 17.92 38.63 H 35 C435 0
4115 H 63.19 17.1 37.32 H 35 C435 0
4116 C 58.91 18.09 41.2 C.3 35 C435 0
4117 C 59.88 18.9 40.6 C.3 35 C435 0
4118 H 58.34 18.63 41.75 H 35 C435 0
4119 H 60.47 19.24 41.27 H 35 C435 0
4120 H 59.46 19.63 40.16 H 35 C435 0
4121 C1 60.68 18.08 39.58 C.3 35 C435 0
4122 O2 60.88 18.53 38.45 O.3 35 C435 0
4123 O3 61.15 16.85 39.92 O.3 35 C435 0
4124 C 59.6 17.03 42.07 C.3 35 C435 0
4125 H 58.94 16.48 42.48 H 35 C435 0
4126 H 60.17 16.49 41.53 H 35 C435 0
4127 H 60.12 17.45 42.75 H 35 C435 0
4128 C 55.84 16.04 38.99 C.3 35 C435 0
4129 C 56.81 15.3 39.68 C.3 35 C435 0
4130 H 55.27 15.45 38.51 H 35 C435 0
4131 H 57.4 14.89 39.06 H 35 C435 0
4132 H 56.39 14.63 40.2 H 35 C435 0
4133 C1 57.61 16.23 40.61 C.3 35 C435 0
4134 O2 57.81 15.91 41.78 O.3 35 C435 0
4135 O3 58.09 17.42 40.13 O.3 35 C435 0
4136 C 56.53 17 38.01 C.3 35 C435 0
4137 H 55.87 17.51 37.55 H 35 C435 0
4138 H 57.1 17.59 38.49 H 35 C435 0
4139 H 57.05 16.51 37.39 H 35 C435 0
4140 C 52.77 18.33 40.96 C.3 35 C435 0
4141 C 53.74 18.99 40.2 C.3 35 C435 0
4142 H 52.21 18.97 41.38 H 35 C435 0
4143 H 54.33 19.46 40.77 H 35 C435 0
4144 H 53.32 19.6 39.61 H 35 C435 0
4145 C1 54.54 17.95 39.38 C.3 35 C435 0
4146 O2 54.75 18.14 38.18 O.3 35 C435 0
4147 O3 55.02 16.83 39.98 O.3 35 C435 0
4148 C 53.46 17.48 42.05 C.3 35 C435 0
4149 H 52.81 17.03 42.56 H 35 C435 0
4150 H 54.03 16.84 41.63 H 35 C435 0
4151 H 53.98 18.04 42.61 H 35 C435 0
4152 C 49.71 15.84 39.26 C.3 35 C435 0
4153 C 50.68 15.26 40.09 C.3 35 C435 0
4154 H 49.14 15.15 38.92 H 35 C435 0
4155 H 51.27 14.73 39.57 H 35 C435 0
4156 H 50.25 14.72 40.75 H 35 C435 0
4157 C1 51.47 16.38 40.79 C.3 35 C435 0
4158 O2 51.68 16.33 42 O.3 35 C435 0
4159 O3 51.95 17.43 40.07 O.3 35 C435 0
4160 C 50.4 16.56 38.09 C.3 35 C435 0
4161 H 49.74 16.95 37.52 H 35 C435 0
4162 H 50.96 17.24 38.43 H 35 C435 0
4163 H 50.91 15.94 37.59 H 35 C435 0
4164 C 46.64 18.5 40.68 C.3 35 C435 0
4165 C 47.61 18.98 39.79 C.3 35 C435 0
4166 H 46.07 19.22 40.94 H 35 C435 0
4167 H 48.2 19.56 40.24 H 35 C435 0
4168 H 47.19 19.44 39.08 H 35 C435 0
4169 C1 48.41 17.79 39.22 C.3 35 C435 0
4170 O2 48.61 17.71 38.01 O.3 35 C435 0
4171 O3 48.88 16.82 40.05 O.3 35 C435 0
4172 C 47.33 17.91 41.92 C.3 35 C435 0
4173 H 46.67 17.59 42.52 H 35 C435 0
4174 H 47.9 17.19 41.66 H 35 C435 0
4175 H 47.85 18.58 42.34 H 35 C435 0
4176 C 43.57 15.7 39.56 C.3 35 C435 0
4177 C 44.54 15.32 40.5 C.3 35 C435 0
4178 H 43.01 14.95 39.38 H 35 C435 0
4179 H 45.13 14.69 40.11 H 35 C435 0
4180 H 44.12 14.94 41.26 H 35 C435 0
4181 C1 45.34 16.57 40.94 C.3 35 C435 0
4182 O2 45.54 16.78 42.13 O.3 35 C435 0
4183 O3 45.82 17.43 40 O.3 35 C435 0
4184 C 44.26 16.15 38.26 C.3 35 C435 0
4185 H 43.6 16.4 37.63 H 35 C435 0
4186 H 44.83 16.89 38.44 H 35 C435 0
4187 H 44.78 15.43 37.91 H 35 C435 0
4188 C 40.5 18.61 40.36 C.3 35 C435 0
4189 C 41.47 18.87 39.39 C.3 35 C435 0
4190 H 39.94 19.36 40.46 H 35 C435 0
4191 H 42.06 19.55 39.7 H 35 C435 0
4192 H 41.05 19.17 38.59 H 35 C435 0
4193 C1 42.27 17.59 39.09 C.3 35 C435 0
4194 O2 42.48 17.25 37.93 O.3 35 C435 0
4195 O3 42.75 16.83 40.12 O.3 35 C435 0
4196 C 41.19 18.3 41.7 C.3 35 C435 0
4197 H 40.54 18.12 42.36 H 35 C435 0
4198 H 41.76 17.55 41.6 H 35 C435 0
4199 H 41.71 19.05 41.97 H 35 C435 0
4200 C 37.44 15.63 39.89 C.3 35 C435 0
4201 C 38.41 15.47 40.89 C.3 35 C435 0
4202 H 36.87 14.86 39.88 H 35 C435 0
4203 H 39 14.76 40.65 H 35 C435 0
4204 H 37.98 15.26 41.71 H 35 C435 0
4205 C1 39.2 16.78 41.04 C.3 35 C435 0
4206 O2 39.41 17.25 42.16 O.3 35 C435 0
4207 O3 39.68 17.42 39.94 O.3 35 C435 0
4208 C 38.13 15.78 38.52 C.3 35 C435 0
4209 H 37.47 15.89 37.85 H 35 C435 0
4210 H 38.69 16.54 38.54 H 35 C435 0
4211 H 38.64 15 38.34 H 35 C435 0
4212 C 34.37 18.64 40.03 C.3 35 C435 0
4213 C 35.34 18.69 39.02 C.3 35 C435 0
4214 H 33.8 19.4 39.96 H 35 C435 0
4215 H 35.93 19.41 39.18 H 35 C435 0
4216 H 34.91 18.8 38.18 H 35 C435 0
4217 C1 36.14 17.37 39.01 C.3 35 C435 0
4218 O2 36.34 16.78 37.95 O.3 35 C435 0
4219 O3 36.61 16.86 40.18 O.3 35 C435 0
4220 C 35.06 18.64 41.4 C.3 35 C435 0
4221 H 34.4 18.61 42.09 H 35 C435 0
4222 H 35.62 17.88 41.47 H 35 C435 0
4223 H 35.58 19.43 41.5 H 35 C435 0
4224 C 31.3 15.63 40.23 C.3 35 C435 0
4225 C 32.27 15.7 41.23 C.3 35 C435 0
4226 H 30.73 14.88 40.38 H 35 C435 0
4227 H 32.86 14.95 41.15 H 35 C435 0
4228 H 31.85 15.67 42.08 H 35 C435 0
4229 C1 33.07 17.01 41.09 C.3 35 C435 0
4230 O2 33.27 17.71 42.08 O.3 35 C435 0
4231 O3 33.54 17.38 39.88 O.3 35 C435 0
4232 C 31.99 15.48 38.86 C.3 35 C435 0
4233 H 31.33 15.43 38.17 H 35 C435 0
4234 H 32.56 16.23 38.7 H 35 C435 0
4235 H 32.51 14.68 38.85 H 35 C435 0
4236 C 28.23 18.6 39.7 C.3 35 C435 0
4237 C 29.2 18.43 38.7 C.3 35 C435 0
4238 H 27.67 19.33 39.46 H 35 C435 0
4239 H 29.79 19.17 38.7 H 35 C435 0
4240 H 28.78 18.35 37.86 H 35 C435 0
4241 C1 30 17.14 38.99 C.3 35 C435 0
4242 O2 30.21 16.33 38.08 O.3 35 C435 0
4243 O3 30.48 16.9 40.24 O.3 35 C435 0
4244 C 28.92 18.9 41.04 C.3 35 C435 0
4245 H 28.27 19.02 41.71 H 35 C435 0
4246 H 29.49 18.18 41.27 H 35 C435 0
4247 H 29.44 19.7 40.96 H 35 C435 0
4248 C 25.17 15.71 40.55 C.3 35 C435 0
4249 C 26.14 15.99 41.52 C.3 35 C435 0
4250 H 24.6 15.01 40.87 H 35 C435 0
4251 H 26.73 15.25 41.6 H 35 C435 0
4252 H 25.71 16.16 42.35 H 35 C435 0
4253 C1 26.93 17.24 41.09 C.3 35 C435 0
4254 O2 27.14 18.14 41.9 O.3 35 C435 0
4255 O3 27.41 17.34 39.83 O.3 35 C435 0
4256 C 25.86 15.26 39.25 C.3 35 C435 0
4257 H 25.2 15.07 38.59 H 35 C435 0
4258 H 26.42 15.95 38.94 H 35 C435 0
4259 H 26.37 14.48 39.42 H 35 C435 0
4260 C 22.1 18.49 39.38 C.3 35 C435 0
4261 C 23.07 18.1 38.45 C.3 35 C435 0
4262 H 21.53 19.15 38.99 H 35 C435 0
4263 H 23.66 18.82 38.28 H 35 C435 0
4264 H 22.64 17.84 37.64 H 35 C435 0
4265 C1 23.87 16.91 39.01 C.3 35 C435 0
4266 O2 24.07 15.92 38.31 O.3 35 C435 0
4267 O3 24.34 16.94 40.28 O.3 35 C435 0
4268 C 22.79 19.08 40.63 C.3 35 C435 0
4269 H 22.13 19.35 41.26 H 35 C435 0
4270 H 23.35 18.42 41.01 H 35 C435 0
4271 H 23.31 19.84 40.37 H 35 C435 0
4272 C 19.03 15.85 40.85 C.3 35 C435 0
4273 C 20 16.35 41.73 C.3 35 C435 0
4274 H 18.46 15.25 41.31 H 35 C435 0
4275 H 20.59 15.64 41.98 H 35 C435 0
4276 H 19.58 16.69 42.51 H 35 C435 0
4277 C1 20.8 17.47 41.04 C.3 35 C435 0
4278 O2 21 18.53 41.64 O.3 35 C435 0
4279 O3 21.27 17.29 39.78 O.3 35 C435 0
4280 C 19.72 15.13 39.68 C.3 35 C435 0
4281 H 19.06 14.8 39.08 H 35 C435 0
4282 H 20.29 15.74 39.22 H 35 C435 0
4283 H 20.24 14.41 40.02 H 35 C435 0
4284 C 15.96 18.31 39.1 C.3 35 C435 0
4285 C 16.93 17.73 38.28 C.3 35 C435 0
4286 H 15.4 18.87 38.58 H 35 C435 0
4287 H 17.52 18.4 37.96 H 35 C435 0
4288 H 16.51 17.3 37.54 H 35 C435 0
4289 C1 17.73 16.69 39.09 C.3 35 C435 0
4290 O2 17.94 15.57 38.62 O.3 35 C435 0
4291 O3 18.21 17 40.32 O.3 35 C435 0
4292 C 16.65 19.16 40.18 C.3 35 C435 0
4293 H 16 19.56 40.74 H 35 C435 0
4294 H 17.22 18.61 40.71 H 35 C435 0
4295 H 17.17 19.84 39.77 H 35 C435 0
4296 C 12.89 16.06 41.11 C.3 35 C435 0
4297 C 13.87 16.74 41.87 C.3 35 C435 0
4298 H 12.33 15.57 41.69 H 35 C435 0
4299 H 14.45 16.11 42.26 H 35 C435 0
4300 H 13.44 17.24 42.55 H 35 C435 0
4301 C1 14.66 17.68 40.95 C.3 35 C435 0
4302 O2 14.87 18.85 41.29 O.3 35 C435 0
4303 O3 15.14 17.23 39.76 O.3 35 C435 0
4304 C 13.59 15.1 40.13 C.3 35 C435 0
4305 H 12.93 14.64 39.62 H 35 C435 0
4306 H 14.15 15.59 39.55 H 35 C435 0
4307 H 14.1 14.47 40.62 H 35 C435 0
4308 C 9.83 18.08 38.86 C.3 35 C435 0
4309 C 10.8 17.32 38.19 C.3 35 C435 0
4310 H 9.26 18.5 38.23 H 35 C435 0
4311 H 11.39 17.91 37.73 H 35 C435 0
4312 H 10.37 16.74 37.57 H 35 C435 0
4313 C1 11.59 16.49 39.21 C.3 35 C435 0
4314 O2 11.8 15.29 38.99 O.3 35 C435 0
4315 O3 12.07 17.07 40.34 O.3 35 C435 0
4316 C 10.52 19.14 39.73 C.3 35 C435 0
4317 H 9.86 19.65 40.19 H 35 C435 0
4318 H 11.08 18.72 40.37 H 35 C435 0
4319 H 11.04 19.72 39.18 H 35 C435 0
4320 C 6.76 16.33 41.32 C.3 35 C435 0
4321 C 7.73 17.15 41.91 C.3 35 C435 0
4322 H 6.19 15.97 42 H 35 C435 0
4323 H 8.32 16.62 42.43 H 35 C435 0
4324 H 7.31 17.79 42.46 H 35 C435 0
4325 C1 8.53 17.87 40.8 C.3 35 C435 0
4326 O2 8.73 19.08 40.88 O.3 35 C435 0
4327 O3 9 17.17 39.74 O.3 35 C435 0
4328 C 7.45 15.17 40.57 C.3 35 C435 0
4329 H 6.79 14.61 40.18 H 35 C435 0
4330 H 8.02 15.52 39.9 H 35 C435 0
4331 H 7.97 14.66 41.19 H 35 C435 0
4332 H 3.17 17.36 39.35 H 36 C436 0
4333 C 3.69 17.79 38.68 C.3 36 C436 0
4334 C 4.66 16.91 38.19 C.3 36 C436 0
4335 H 3.13 18.07 37.97 H 36 C436 0
4336 H 5.25 17.38 37.62 H 36 C436 0
4337 H 4.24 16.21 37.71 H 36 C436 0
4338 C1 5.46 16.32 39.37 C.3 36 C436 0
4339 O2 5.67 15.11 39.43 O.3 36 C436 0
4340 O3 5.94 17.13 40.35 O.3 36 C436 0
4341 C 4.38 19.03 39.3 C.3 36 C436 0
4342 H 3.72 19.62 39.63 H 36 C436 0
4343 H 4.95 18.75 40.01 H 36 C436 0
4344 H 4.9 19.46 38.63 H 36 C436 0
4345 C 92.65 17.88 50.17 C.3 37 C437 0
4346 C 93.62 17.04 49.62 C.3 37 C437 0
4347 H 92.09 18.21 49.48 H 37 C437 0
4348 H 94.21 17.55 49.08 H 37 C437 0
4349 H 93.2 16.37 49.09 H 37 C437 0
4350 C1 94.42 16.36 50.75 C.3 37 C437 0
4351 O2 94.63 15.15 50.72 O.3 37 C437 0
4352 O3 94.9 17.1 51.78 O.3 37 C437 0
4353 H5 95.42 16.55 52.36 H 37 C437 0
4354 C 93.34 19.06 50.88 C.3 37 C437 0
4355 H 92.68 19.64 51.25 H 37 C437 0
4356 H 93.91 18.74 51.56 H 37 C437 0
4357 H 93.86 19.55 50.24 H 37 C437 0
4358 C 89.58 16.52 52.86 C.3 38 C438 0
4359 C 90.55 17.42 53.32 C.3 38 C438 0
4360 H 89.02 16.27 53.58 H 38 C438 0
4361 H 91.15 16.97 53.92 H 38 C438 0
4362 H 90.13 18.14 53.77 H 38 C438 0
4363 C1 91.35 17.96 52.12 C.3 38 C438 0
4364 O2 91.56 19.17 52.02 O.3 38 C438 0
4365 O3 91.83 17.11 51.18 O.3 38 C438 0
4366 C 90.28 15.26 52.3 C.3 38 C438 0
4367 H 89.62 14.65 51.99 H 38 C438 0
4368 H 90.84 15.51 51.58 H 38 C438 0
4369 H 90.79 14.85 52.98 H 38 C438 0
4370 C 86.52 17.58 50.04 C.3 38 C438 0
4371 C 87.49 16.63 49.68 C.3 38 C438 0
4372 H 85.95 17.74 49.29 H 38 C438 0
4373 H 88.08 17.01 49.04 H 38 C438 0
4374 H 87.06 15.87 49.31 H 38 C438 0
4375 C1 88.28 16.22 50.94 C.3 38 C438 0
4376 O2 88.49 15.03 51.17 O.3 38 C438 0
4377 O3 88.76 17.17 51.78 O.3 38 C438 0
4378 C 87.21 18.89 50.46 C.3 38 C438 0
4379 H 86.55 19.53 50.7 H 38 C438 0
4380 H 87.77 18.72 51.21 H 38 C438 0
4381 H 87.73 19.22 49.74 H 38 C438 0
4382 C 83.45 16.84 52.96 C.3 38 C438 0
4383 C 84.42 17.81 53.21 C.3 38 C438 0
4384 H 82.88 16.75 53.72 H 38 C438 0
4385 H 85.01 17.51 53.89 H 38 C438 0
4386 H 84 18.62 53.5 H 38 C438 0
4387 C1 85.22 18.09 51.92 C.3 38 C438 0
4388 O2 85.42 19.24 51.56 O.3 38 C438 0
4389 O3 85.69 17.05 51.19 O.3 38 C438 0
4390 C 84.14 15.49 52.69 C.3 38 C438 0
4391 H 83.48 14.82 52.52 H 38 C438 0
4392 H 84.71 15.57 51.93 H 38 C438 0
4393 H 84.66 15.24 53.44 H 38 C438 0
4394 C 80.38 17.25 49.97 C.3 38 C438 0
4395 C 81.35 16.25 49.84 C.3 38 C438 0
4396 H 79.82 17.25 49.21 H 38 C438 0
4397 H 81.94 16.48 49.13 H 38 C438 0
4398 H 80.93 15.42 49.64 H 38 C438 0
4399 C1 82.15 16.12 51.15 C.3 38 C438 0
4400 O2 82.36 15.01 51.64 O.3 38 C438 0
4401 O3 82.63 17.24 51.76 O.3 38 C438 0
4402 C 81.07 18.62 50.1 C.3 38 C438 0
4403 H 80.41 19.3 50.2 H 38 C438 0
4404 H 81.64 18.62 50.86 H 38 C438 0
4405 H 81.59 18.79 49.32 H 38 C438 0
4406 C 77.31 17.17 52.99 C.3 38 C438 0
4407 C 78.28 18.18 53.02 C.3 38 C438 0
4408 H 76.75 17.25 53.75 H 38 C438 0
4409 H 78.88 18.03 53.75 H 38 C438 0
4410 H 77.86 19.02 53.12 H 38 C438 0
4411 C1 79.08 18.16 51.7 C.3 38 C438 0
4412 O2 79.29 19.21 51.09 O.3 38 C438 0
4413 O3 79.56 16.98 51.21 O.3 38 C438 0
4414 C 78.01 15.79 53.02 C.3 38 C438 0
4415 H 77.35 15.11 53 H 38 C438 0
4416 H 78.57 15.71 52.26 H 38 C438 0
4417 H 78.52 15.71 53.81 H 38 C438 0
4418 C 74.25 16.92 49.98 C.3 38 C438 0
4419 C 75.22 15.91 50.07 C.3 38 C438 0
4420 H 73.68 16.75 49.24 H 38 C438 0
4421 H 75.81 15.97 49.33 H 38 C438 0
4422 H 74.79 15.06 50.06 H 38 C438 0
4423 C1 76.01 16.07 51.38 C.3 38 C438 0
4424 O2 76.22 15.1 52.1 O.3 38 C438 0
4425 O3 76.49 17.3 51.73 O.3 38 C438 0
4426 C 74.94 18.28 49.81 C.3 38 C438 0
4427 H 74.28 18.96 49.75 H 38 C438 0
4428 H 75.5 18.45 50.55 H 38 C438 0
4429 H 75.46 18.27 49.01 H 38 C438 0
4430 C 71.18 17.5 52.95 C.3 38 C438 0
4431 C 72.15 18.49 52.75 C.3 38 C438 0
4432 H 70.61 17.75 53.67 H 38 C438 0
4433 H 72.74 18.51 53.49 H 38 C438 0
4434 H 71.73 19.34 52.66 H 38 C438 0
4435 C1 72.95 18.18 51.47 C.3 38 C438 0
4436 O2 73.15 19.07 50.64 O.3 38 C438 0
4437 O3 73.42 16.93 51.25 O.3 38 C438 0
4438 C 71.87 16.16 53.27 C.3 38 C438 0
4439 H 71.21 15.49 53.41 H 38 C438 0
4440 H 72.44 15.92 52.55 H 38 C438 0
4441 H 72.39 16.26 54.06 H 38 C438 0
4442 C 68.11 16.59 50.07 C.3 38 C438 0
4443 C 69.08 15.63 50.37 C.3 38 C438 0
4444 H 67.55 16.26 49.38 H 38 C438 0
4445 H 69.67 15.53 49.63 H 38 C438 0
4446 H 68.66 14.8 50.55 H 38 C438 0
4447 C1 69.88 16.08 51.61 C.3 38 C438 0
4448 O2 70.09 15.29 52.53 O.3 38 C438 0
4449 O3 70.36 17.35 51.69 O.3 38 C438 0
4450 C 68.8 17.88 49.59 C.3 38 C438 0
4451 H 68.14 18.54 49.39 H 38 C438 0
4452 H 69.37 18.21 50.28 H 38 C438 0
4453 H 69.32 17.7 48.82 H 38 C438 0
4454 C 65.04 17.81 52.83 C.3 38 C438 0
4455 C 66.01 18.74 52.42 C.3 38 C438 0
4456 H 64.48 18.22 53.48 H 38 C438 0
4457 H 66.6 18.92 53.14 H 38 C438 0
4458 H 65.59 19.54 52.15 H 38 C438 0
4459 C1 66.81 18.16 51.24 C.3 38 C438 0
4460 O2 67.02 18.84 50.24 O.3 38 C438 0
4461 O3 67.29 16.88 51.3 O.3 38 C438 0
4462 C 65.74 16.58 53.44 C.3 38 C438 0
4463 H 65.08 15.96 53.72 H 38 C438 0
4464 H 66.3 16.18 52.79 H 38 C438 0
4465 H 66.25 16.85 54.19 H 38 C438 0
4466 C 61.98 16.3 50.22 C.3 38 C438 0
4467 C 62.95 15.42 50.73 C.3 38 C438 0
4468 H 61.41 15.82 49.62 H 38 C438 0
4469 H 63.54 15.16 50.03 H 38 C438 0
4470 H 62.52 14.65 51.09 H 38 C438 0
4471 C1 63.74 16.13 51.84 C.3 38 C438 0
4472 O2 63.95 15.56 52.91 O.3 38 C438 0
4473 O3 64.22 17.39 51.64 O.3 38 C438 0
4474 C 62.67 17.45 49.47 C.3 38 C438 0
4475 H 62.01 18.04 49.13 H 38 C438 0
4476 H 63.23 17.92 50.07 H 38 C438 0
4477 H 63.19 17.1 48.76 H 38 C438 0
4478 C 58.91 18.09 52.64 C.3 38 C438 0
4479 C 59.88 18.9 52.04 C.3 38 C438 0
4480 H 58.34 18.63 53.19 H 38 C438 0
4481 H 60.47 19.24 52.71 H 38 C438 0
4482 H 59.46 19.63 51.6 H 38 C438 0
4483 C1 60.68 18.08 51.02 C.3 38 C438 0
4484 O2 60.88 18.53 49.89 O.3 38 C438 0
4485 O3 61.15 16.85 51.36 O.3 38 C438 0
4486 C 59.6 17.03 53.51 C.3 38 C438 0
4487 H 58.94 16.48 53.92 H 38 C438 0
4488 H 60.17 16.49 52.97 H 38 C438 0
4489 H 60.12 17.45 54.19 H 38 C438 0
4490 C 55.84 16.04 50.43 C.3 38 C438 0
4491 C 56.81 15.3 51.12 C.3 38 C438 0
4492 H 55.27 15.45 49.95 H 38 C438 0
4493 H 57.4 14.89 50.5 H 38 C438 0
4494 H 56.39 14.63 51.64 H 38 C438 0
4495 C1 57.61 16.23 52.05 C.3 38 C438 0
4496 O2 57.81 15.91 53.22 O.3 38 C438 0
4497 O3 58.09 17.42 51.57 O.3 38 C438 0
4498 C 56.53 17 49.45 C.3 38 C438 0
4499 H 55.87 17.51 48.99 H 38 C438 0
4500 H 57.1 17.59 49.93 H 38 C438 0
4501 H 57.05 16.51 48.83 H 38 C438 0
4502 C 52.77 18.33 52.4 C.3 38 C438 0
4503 C 53.74 18.99 51.64 C.3 38 C438 0
4504 H 52.21 18.97 52.82 H 38 C438 0
4505 H 54.33 19.46 52.21 H 38 C438 0
4506 H 53.32 19.6 51.05 H 38 C438 0
4507 C1 54.54 17.95 50.82 C.3 38 C438 0
4508 O2 54.75 18.14 49.62 O.3 38 C438 0
4509 O3 55.02 16.83 51.42 O.3 38 C438 0
4510 C 53.46 17.48 53.49 C.3 38 C438 0
4511 H 52.81 17.03 54 H 38 C438 0
4512 H 54.03 16.84 53.07 H 38 C438 0
4513 H 53.98 18.04 54.05 H 38 C438 0
4514 C 49.71 15.84 50.7 C.3 38 C438 0
4515 C 50.68 15.26 51.53 C.3 38 C438 0
4516 H 49.14 15.15 50.36 H 38 C438 0
4517 H 51.27 14.73 51.01 H 38 C438 0
4518 H 50.25 14.72 52.19 H 38 C438 0
4519 C1 51.47 16.38 52.23 C.3 38 C438 0
4520 O2 51.68 16.33 53.44 O.3 38 C438 0
4521 O3 51.95 17.43 51.51 O.3 38 C438 0
4522 C 50.4 16.56 49.53 C.3 38 C438 0
4523 H 49.74 16.95 48.96 H 38 C438 0
4524 H 50.96 17.24 49.87 H 38 C438 0
4525 H 50.91 15.94 49.03 H 38 C438 0
4526 C 46.64 18.5 52.12 C.3 38 C438 0
4527 C 47.61 18.98 51.23 C.3 38 C438 0
4528 H 46.07 19.22 52.38 H 38 C438 0
4529 H 48.2 19.56 51.68 H 38 C438 0
4530 H 47.19 19.44 50.52 H 38 C438 0
4531 C1 48.41 17.79 50.66 C.3 38 C438 0
4532 O2 48.61 17.71 49.45 O.3 38 C438 0
4533 O3 48.88 16.82 51.49 O.3 38 C438 0
4534 C 47.33 17.91 53.36 C.3 38 C438 0
4535 H 46.67 17.59 53.96 H 38 C438 0
4536 H 47.9 17.19 53.1 H 38 C438 0
4537 H 47.85 18.58 53.78 H 38 C438 0
4538 C 43.57 15.7 51 C.3 38 C438 0
4539 C 44.54 15.32 51.94 C.3 38 C438 0
4540 H 43.01 14.95 50.82 H 38 C438 0
4541 H 45.13 14.69 51.55 H 38 C438 0
4542 H 44.12 14.94 52.7 H 38 C438 0
4543 C1 45.34 16.57 52.38 C.3 38 C438 0
4544 O2 45.54 16.78 53.57 O.3 38 C438 0
4545 O3 45.82 17.43 51.44 O.3 38 C438 0
4546 C 44.26 16.15 49.7 C.3 38 C438 0
4547 H 43.6 16.4 49.07 H 38 C438 0
4548 H 44.83 16.89 49.88 H 38 C438 0
4549 H 44.78 15.43 49.35 H 38 C438 0
4550 C 40.5 18.61 51.8 C.3 38 C438 0
4551 C 41.47 18.87 50.83 C.3 38 C438 0
4552 H 39.94 19.36 51.9 H 38 C438 0
4553 H 42.06 19.55 51.14 H 38 C438 0
4554 H 41.05 19.17 50.03 H 38 C438 0
4555 C1 42.27 17.59 50.53 C.3 38 C438 0
4556 O2 42.48 17.25 49.37 O.3 38 C438 0
4557 O3 42.75 16.83 51.56 O.3 38 C438 0
4558 C 41.19 18.3 53.14 C.3 38 C438 0
4559 H 40.54 18.12 53.8 H 38 C438 0
4560 H 41.76 17.55 53.04 H 38 C438 0
4561 H 41.71 19.05 53.41 H 38 C438 0
4562 C 37.44 15.63 51.33 C.3 38 C438 0
4563 C 38.41 15.47 52.33 C.3 38 C438 0
4564 H 36.87 14.86 51.32 H 38 C438 0
4565 H 39 14.76 52.09 H 38 C438 0
4566 H 37.98 15.26 53.15 H 38 C438 0
4567 C1 39.2 16.78 52.48 C.3 38 C438 0
4568 O2 39.41 17.25 53.6 O.3 38 C438 0
4569 O3 39.68 17.42 51.38 O.3 38 C438 0
4570 C 38.13 15.78 49.96 C.3 38 C438 0
4571 H 37.47 15.89 49.29 H 38 C438 0
4572 H 38.69 16.54 49.98 H 38 C438 0
4573 H 38.64 15 49.78 H 38 C438 0
4574 C 34.37 18.64 51.47 C.3 38 C438 0
4575 C 35.34 18.69 50.46 C.3 38 C438 0
4576 H 33.8 19.4 51.4 H 38 C438 0
4577 H 35.93 19.41 50.62 H 38 C438 0
4578 H 34.91 18.8 49.62 H 38 C438 0
4579 C1 36.14 17.37 50.45 C.3 38 C438 0
4580 O2 36.34 16.78 49.39 O.3 38 C438 0
4581 O3 36.61 16.86 51.62 O.3 38 C438 0
4582 C 35.06 18.64 52.84 C.3 38 C438 0
4583 H 34.4 18.61 53.53 H 38 C438 0
4584 H 35.62 17.88 52.91 H 38 C438 0
4585 H 35.58 19.43 52.94 H 38 C438 0
4586 C 31.3 15.63 51.67 C.3 38 C438 0
4587 C 32.27 15.7 52.67 C.3 38 C438 0
4588 H 30.73 14.88 51.82 H 38 C438 0
4589 H 32.86 14.95 52.59 H 38 C438 0
4590 H 31.85 15.67 53.52 H 38 C438 0
4591 C1 33.07 17.01 52.53 C.3 38 C438 0
4592 O2 33.27 17.71 53.52 O.3 38 C438 0
4593 O3 33.54 17.38 51.32 O.3 38 C438 0
4594 C 31.99 15.48 50.3 C.3 38 C438 0
4595 H 31.33 15.43 49.61 H 38 C438 0
4596 H 32.56 16.23 50.14 H 38 C438 0
4597 H 32.51 14.68 50.29 H 38 C438 0
4598 C 28.23 18.6 51.14 C.3 38 C438 0
4599 C 29.2 18.43 50.14 C.3 38 C438 0
4600 H 27.67 19.33 50.9 H 38 C438 0
4601 H 29.79 19.17 50.14 H 38 C438 0
4602 H 28.78 18.35 49.3 H 38 C438 0
4603 C1 30 17.14 50.43 C.3 38 C438 0
4604 O2 30.21 16.33 49.52 O.3 38 C438 0
4605 O3 30.48 16.9 51.68 O.3 38 C438 0
4606 C 28.92 18.9 52.48 C.3 38 C438 0
4607 H 28.27 19.02 53.15 H 38 C438 0
4608 H 29.49 18.18 52.71 H 38 C438 0
4609 H 29.44 19.7 52.4 H 38 C438 0
4610 C 25.17 15.71 51.99 C.3 38 C438 0
4611 C 26.14 15.99 52.96 C.3 38 C438 0
4612 H 24.6 15.01 52.31 H 38 C438 0
4613 H 26.73 15.25 53.04 H 38 C438 0
4614 H 25.71 16.16 53.79 H 38 C438 0
4615 C1 26.93 17.24 52.53 C.3 38 C438 0
4616 O2 27.14 18.14 53.34 O.3 38 C438 0
4617 O3 27.41 17.34 51.27 O.3 38 C438 0
4618 C 25.86 15.26 50.69 C.3 38 C438 0
4619 H 25.2 15.07 50.03 H 38 C438 0
4620 H 26.42 15.95 50.38 H 38 C438 0
4621 H 26.37 14.48 50.86 H 38 C438 0
4622 C 22.1 18.49 50.82 C.3 38 C438 0
4623 C 23.07 18.1 49.89 C.3 38 C438 0
4624 H 21.53 19.15 50.43 H 38 C438 0
4625 H 23.66 18.82 49.72 H 38 C438 0
4626 H 22.64 17.84 49.08 H 38 C438 0
4627 C1 23.87 16.91 50.45 C.3 38 C438 0
4628 O2 24.07 15.92 49.75 O.3 38 C438 0
4629 O3 24.34 16.94 51.72 O.3 38 C438 0
4630 C 22.79 19.08 52.07 C.3 38 C438 0
4631 H 22.13 19.35 52.7 H 38 C438 0
4632 H 23.35 18.42 52.45 H 38 C438 0
4633 H 23.31 19.84 51.81 H 38 C438 0
4634 C 19.03 15.85 52.29 C.3 38 C438 0
4635 C 20 16.35 53.17 C.3 38 C438 0
4636 H 18.46 15.25 52.75 H 38 C438 0
4637 H 20.59 15.64 53.42 H 38 C438 0
4638 H 19.58 16.69 53.95 H 38 C438 0
4639 C1 20.8 17.47 52.48 C.3 38 C438 0
4640 O2 21 18.53 53.08 O.3 38 C438 0
4641 O3 21.27 17.29 51.22 O.3 38 C438 0
4642 C 19.72 15.13 51.12 C.3 38 C438 0
4643 H 19.06 14.8 50.52 H 38 C438 0
4644 H 20.29 15.74 50.66 H 38 C438 0
4645 H 20.24 14.41 51.46 H 38 C438 0
4646 C 15.96 18.31 50.54 C.3 38 C438 0
4647 C 16.93 17.73 49.72 C.3 38 C438 0
4648 H 15.4 18.87 50.02 H 38 C438 0
4649 H 17.52 18.4 49.4 H 38 C438 0
4650 H 16.51 17.3 48.98 H 38 C438 0
4651 C1 17.73 16.69 50.53 C.3 38 C438 0
4652 O2 17.94 15.57 50.06 O.3 38 C438 0
4653 O3 18.21 17 51.76 O.3 38 C438 0
4654 C 16.65 19.16 51.62 C.3 38 C438 0
4655 H 16 19.56 52.18 H 38 C438 0
4656 H 17.22 18.61 52.15 H 38 C438 0
4657 H 17.17 19.84 51.21 H 38 C438 0
4658 C 12.89 16.06 52.55 C.3 38 C438 0
4659 C 13.87 16.74 53.31 C.3 38 C438 0
4660 H 12.33 15.57 53.13 H 38 C438 0
4661 H 14.45 16.11 53.7 H 38 C438 0
4662 H 13.44 17.24 53.99 H 38 C438 0
4663 C1 14.66 17.68 52.39 C.3 38 C438 0
4664 O2 14.87 18.85 52.73 O.3 38 C438 0
4665 O3 15.14 17.23 51.2 O.3 38 C438 0
4666 C 13.59 15.1 51.57 C.3 38 C438 0
4667 H 12.93 14.64 51.06 H 38 C438 0
4668 H 14.15 15.59 50.99 H 38 C438 0
4669 H 14.1 14.47 52.06 H 38 C438 0
4670 C 9.83 18.08 50.3 C.3 38 C438 0
4671 C 10.8 17.32 49.63 C.3 38 C438 0
4672 H 9.26 18.5 49.67 H 38 C438 0
4673 H 11.39 17.91 49.17 H 38 C438 0
4674 H 10.37 16.74 49.01 H 38 C438 0
4675 C1 11.59 16.49 50.65 C.3 38 C438 0
4676 O2 11.8 15.29 50.43 O.3 38 C438 0
4677 O3 12.07 17.07 51.78 O.3 38 C438 0
4678 C 10.52 19.14 51.17 C.3 38 C438 0
4679 H 9.86 19.65 51.63 H 38 C438 0
4680 H 11.08 18.72 51.81 H 38 C438 0
4681 H 11.04 19.72 50.62 H 38 C438 0
4682 C 6.76 16.33 52.76 C.3 38 C438 0
4683 C 7.73 17.15 53.35 C.3 38 C438 0
4684 H 6.19 15.97 53.44 H 38 C438 0
4685 H 8.32 16.62 53.87 H 38 C438 0
4686 H 7.31 17.79 53.9 H 38 C438 0
4687 C1 8.53 17.87 52.24 C.3 38 C438 0
4688 O2 8.73 19.08 52.32 O.3 38 C438 0
4689 O3 9 17.17 51.18 O.3 38 C438 0
4690 C 7.45 15.17 52.01 C.3 38 C438 0
4691 H 6.79 14.61 51.62 H 38 C438 0
4692 H 8.02 15.52 51.34 H 38 C438 0
4693 H 7.97 14.66 52.63 H 38 C438 0
4694 H 3.17 17.36 50.79 H 39 C439 0
4695 C 3.69 17.79 50.12 C.3 39 C439 0
4696 C 4.66 16.91 49.63 C.3 39 C439 0
4697 H 3.13 18.07 49.41 H 39 C439 0
4698 H 5.25 17.38 49.06 H 39 C439 0
4699 H 4.24 16.21 49.15 H 39 C439 0
4700 C1 5.46 16.32 50.81 C.3 39 C439 0
4701 O2 5.67 15.11 50.87 O.3 39 C439 0
4702 O3 5.94 17.13 51.79 O.3 39 C439 0
4703 C 4.38 19.03 50.74 C.3 39 C439 0
4704 H 3.72 19.62 51.07 H 39 C439 0
4705 H 4.95 18.75 51.45 H 39 C439 0
4706 H 4.9 19.46 50.07 H 39 C439 0
4707 C 92.65 17.88 61.6 C.3 40 C440 0
4708 C 93.62 17.04 61.05 C.3 40 C440 0
4709 H 92.09 18.21 60.91 H 40 C440 0
4710 H 94.21 17.55 60.51 H 40 C440 0
4711 H 93.2 16.37 60.52 H 40 C440 0
4712 C1 94.42 16.36 62.18 C.3 40 C440 0
4713 O2 94.63 15.15 62.15 O.3 40 C440 0
4714 O3 94.9 17.1 63.21 O.3 40 C440 0
4715 H5 95.42 16.55 63.79 H 40 C440 0
4716 C 93.34 19.06 62.31 C.3 40 C440 0
4717 H 92.68 19.64 62.68 H 40 C440 0
4718 H 93.91 18.74 62.99 H 40 C440 0
4719 H 93.86 19.55 61.67 H 40 C440 0
4720 C 89.58 16.52 64.29 C.3 41 C441 0
4721 C 90.55 17.42 64.75 C.3 41 C441 0
4722 H 89.02 16.27 65.01 H 41 C441 0
4723 H 91.15 16.97 65.35 H 41 C441 0
4724 H 90.13 18.14 65.2 H 41 C441 0
4725 C1 91.35 17.96 63.55 C.3 41 C441 0
4726 O2 91.56 19.17 63.45 O.3 41 C441 0
4727 O3 91.83 17.11 62.61 O.3 41 C441 0
4728 C 90.28 15.26 63.73 C.3 41 C441 0
4729 H 89.62 14.65 63.42 H 41 C441 0
4730 H 90.84 15.51 63.01 H 41 C441 0
4731 H 90.79 14.85 64.41 H 41 C441 0
4732 C 86.52 17.58 61.47 C.3 41 C441 0
4733 C 87.49 16.63 61.11 C.3 41 C441 0
4734 H 85.95 17.74 60.72 H 41 C441 0
4735 H 88.08 17.01 60.47 H 41 C441 0
4736 H 87.06 15.87 60.74 H 41 C441 0
4737 C1 88.28 16.22 62.37 C.3 41 C441 0
4738 O2 88.49 15.03 62.6 O.3 41 C441 0
4739 O3 88.76 17.17 63.21 O.3 41 C441 0
4740 C 87.21 18.89 61.89 C.3 41 C441 0
4741 H 86.55 19.53 62.13 H 41 C441 0
4742 H 87.77 18.72 62.64 H 41 C441 0
4743 H 87.73 19.22 61.17 H 41 C441 0
4744 C 83.45 16.84 64.39 C.3 41 C441 0
4745 C 84.42 17.81 64.64 C.3 41 C441 0
4746 H 82.88 16.75 65.15 H 41 C441 0
4747 H 85.01 17.51 65.32 H 41 C441 0
4748 H 84 18.62 64.93 H 41 C441 0
4749 C1 85.22 18.09 63.35 C.3 41 C441 0
4750 O2 85.42 19.24 62.99 O.3 41 C441 0
4751 O3 85.69 17.05 62.62 O.3 41 C441 0
4752 C 84.14 15.49 64.12 C.3 41 C441 0
4753 H 83.48 14.82 63.95 H 41 C441 0
4754 H 84.71 15.57 63.36 H 41 C441 0
4755 H 84.66 15.24 64.87 H 41 C441 0
4756 C 80.38 17.25 61.4 C.3 41 C441 0
4757 C 81.35 16.25 61.27 C.3 41 C441 0
4758 H 79.82 17.25 60.64 H 41 C441 0
4759 H 81.94 16.48 60.56 H 41 C441 0
4760 H 80.93 15.42 61.07 H 41 C441 0
4761 C1 82.15 16.12 62.58 C.3 41 C441 0
4762 O2 82.36 15.01 63.07 O.3 41 C441 0
4763 O3 82.63 17.24 63.19 O.3 41 C441 0
4764 C 81.07 18.62 61.53 C.3 41 C441 0
4765 H 80.41 19.3 61.63 H 41 C441 0
4766 H 81.64 18.62 62.29 H 41 C441 0
4767 H 81.59 18.79 60.75 H 41 C441 0
4768 C 77.31 17.17 64.42 C.3 41 C441 0
4769 C 78.28 18.18 64.45 C.3 41 C441 0
4770 H 76.75 17.25 65.18 H 41 C441 0
4771 H 78.88 18.03 65.18 H 41 C441 0
4772 H 77.86 19.02 64.55 H 41 C441 0
4773 C1 79.08 18.16 63.13 C.3 41 C441 0
4774 O2 79.29 19.21 62.52 O.3 41 C441 0
4775 O3 79.56 16.98 62.64 O.3 41 C441 0
4776 C 78.01 15.79 64.45 C.3 41 C441 0
4777 H 77.35 15.11 64.43 H 41 C441 0
4778 H 78.57 15.71 63.69 H 41 C441 0
4779 H 78.52 15.71 65.24 H 41 C441 0
4780 C 74.25 16.92 61.41 C.3 41 C441 0
4781 C 75.22 15.91 61.5 C.3 41 C441 0
4782 H 73.68 16.75 60.67 H 41 C441 0
4783 H 75.81 15.97 60.76 H 41 C441 0
4784 H 74.79 15.06 61.49 H 41 C441 0
4785 C1 76.01 16.07 62.81 C.3 41 C441 0
4786 O2 76.22 15.1 63.53 O.3 41 C441 0
4787 O3 76.49 17.3 63.16 O.3 41 C441 0
4788 C 74.94 18.28 61.24 C.3 41 C441 0
4789 H 74.28 18.96 61.18 H 41 C441 0
4790 H 75.5 18.45 61.98 H 41 C441 0
4791 H 75.46 18.27 60.44 H 41 C441 0
4792 C 71.18 17.5 64.38 C.3 41 C441 0
4793 C 72.15 18.49 64.18 C.3 41 C441 0
4794 H 70.61 17.75 65.1 H 41 C441 0
4795 H 72.74 18.51 64.92 H 41 C441 0
4796 H 71.73 19.34 64.09 H 41 C441 0
4797 C1 72.95 18.18 62.9 C.3 41 C441 0
4798 O2 73.15 19.07 62.07 O.3 41 C441 0
4799 O3 73.42 16.93 62.68 O.3 41 C441 0
4800 C 71.87 16.16 64.7 C.3 41 C441 0
4801 H 71.21 15.49 64.84 H 41 C441 0
4802 H 72.44 15.92 63.98 H 41 C441 0
4803 H 72.39 16.26 65.49 H 41 C441 0
4804 C 68.11 16.59 61.5 C.3 41 C441 0
4805 C 69.08 15.63 61.8 C.3 41 C441 0
4806 H 67.55 16.26 60.81 H 41 C441 0
4807 H 69.67 15.53 61.06 H 41 C441 0
4808 H 68.66 14.8 61.98 H 41 C441 0
4809 C1 69.88 16.08 63.04 C.3 41 C441 0
4810 O2 70.09 15.29 63.96 O.3 41 C441 0
4811 O3 70.36 17.35 63.12 O.3 41 C441 0
4812 C 68.8 17.88 61.02 C.3 41 C441 0
4813 H 68.14 18.54 60.82 H 41 C441 0
4814 H 69.37 18.21 61.71 H 41 C441 0
4815 H 69.32 17.7 60.25 H 41 C441 0
4816 C 65.04 17.81 64.26 C.3 41 C441 0
4817 C 66.01 18.74 63.85 C.3 41 C441 0
4818 H 64.48 18.22 64.91 H 41 C441 0
4819 H 66.6 18.92 64.57 H 41 C441 0
4820 H 65.59 19.54 63.58 H 41 C441 0
4821 C1 66.81 18.16 62.67 C.3 41 C441 0
4822 O2 67.02 18.84 61.67 O.3 41 C441 0
4823 O3 67.29 16.88 62.73 O.3 41 C441 0
4824 C 65.74 16.58 64.87 C.3 41 C441 0
4825 H 65.08 15.96 65.15 H 41 C441 0
4826 H 66.3 16.18 64.22 H 41 C441 0
4827 H 66.25 16.85 65.62 H 41 C441 0
4828 C 61.98 16.3 61.65 C.3 41 C441 0
4829 C 62.95 15.42 62.16 C.3 41 C441 0
4830 H 61.41 15.82 61.05 H 41 C441 0
4831 H 63.54 15.16 61.46 H 41 C441 0
4832 H 62.52 14.65 62.52 H 41 C441 0
4833 C1 63.74 16.13 63.27 C.3 41 C441 0
4834 O2 63.95 15.56 64.34 O.3 41 C441 0
4835 O3 64.22 17.39 63.07 O.3 41 C441 0
4836 C 62.67 17.45 60.9 C.3 41 C441 0
4837 H 62.01 18.04 60.56 H 41 C441 0
4838 H 63.23 17.92 61.5 H 41 C441 0
4839 H 63.19 17.1 60.19 H 41 C441 0
4840 C 58.91 18.09 64.07 C.3 41 C441 0
4841 C 59.88 18.9 63.47 C.3 41 C441 0
4842 H 58.34 18.63 64.62 H 41 C441 0
4843 H 60.47 19.24 64.14 H 41 C441 0
4844 H 59.46 19.63 63.03 H 41 C441 0
4845 C1 60.68 18.08 62.45 C.3 41 C441 0
4846 O2 60.88 18.53 61.32 O.3 41 C441 0
4847 O3 61.15 16.85 62.79 O.3 41 C441 0
4848 C 59.6 17.03 64.94 C.3 41 C441 0
4849 H 58.94 16.48 65.35 H 41 C441 0
4850 H 60.17 16.49 64.4 H 41 C441 0
4851 H 60.12 17.45 65.62 H 41 C441 0
4852 C 55.84 16.04 61.86 C.3 41 C441 0
4853 C 56.81 15.3 62.55 C.3 41 C441 0
4854 H 55.27 15.45 61.38 H 41 C441 0
4855 H 57.4 14.89 61.93 H 41 C441 0
4856 H 56.39 14.63 63.07 H 41 C441 0
4857 C1 57.61 16.23 63.48 C.3 41 C441 0
4858 O2 57.81 15.91 64.65 O.3 41 C441 0
4859 O3 58.09 17.42 63 O.3 41 C441 0
4860 C 56.53 17 60.88 C.3 41 C441 0
4861 H 55.87 17.51 60.42 H 41 C441 0
4862 H 57.1 17.59 61.36 H 41 C441 0
4863 H 57.05 16.51 60.26 H 41 C441 0
4864 C 52.77 18.33 63.83 C.3 41 C441 0
4865 C 53.74 18.99 63.07 C.3 41 C441 0
4866 H 52.21 18.97 64.25 H 41 C441 0
4867 H 54.33 19.46 63.64 H 41 C441 0
4868 H 53.32 19.6 62.48 H 41 C441 0
4869 C1 54.54 17.95 62.25 C.3 41 C441 0
4870 O2 54.75 18.14 61.05 O.3 41 C441 0
4871 O3 55.02 16.83 62.85 O.3 41 C441 0
4872 C 53.46 17.48 64.92 C.3 41 C441 0
4873 H 52.81 17.03 65.43 H 41 C441 0
4874 H 54.03 16.84 64.5 H 41 C441 0
4875 H 53.98 18.04 65.48 H 41 C441 0
4876 C 49.71 15.84 62.13 C.3 41 C441 0
4877 C 50.68 15.26 62.96 C.3 41 C441 0
4878 H 49.14 15.15 61.79 H 41 C441 0
4879 H 51.27 14.73 62.44 H 41 C441 0
4880 H 50.25 14.72 63.62 H 41 C441 0
4881 C1 51.47 16.38 63.66 C.3 41 C441 0
4882 O2 51.68 16.33 64.87 O.3 41 C441 0
4883 O3 51.95 17.43 62.94 O.3 41 C441 0
4884 C 50.4 16.56 60.96 C.3 41 C441 0
4885 H 49.74 16.95 60.39 H 41 C441 0
4886 H 50.96 17.24 61.3 H 41 C441 0
4887 H 50.91 15.94 60.46 H 41 C441 0
4888 C 46.64 18.5 63.55 C.3 41 C441 0
4889 C 47.61 18.98 62.66 C.3 41 C441 0
4890 H 46.07 19.22 63.81 H 41 C441 0
4891 H 48.2 19.56 63.11 H 41 C441 0
4892 H 47.19 19.44 61.95 H 41 C441 0
4893 C1 48.41 17.79 62.09 C.3 41 C441 0
4894 O2 48.61 17.71 60.88 O.3 41 C441 0
4895 O3 48.88 16.82 62.92 O.3 41 C441 0
4896 C 47.33 17.91 64.79 C.3 41 C441 0
4897 H 46.67 17.59 65.39 H 41 C441 0
4898 H 47.9 17.19 64.53 H 41 C441 0
4899 H 47.85 18.58 65.21 H 41 C441 0
4900 C 43.57 15.7 62.43 C.3 41 C441 0
4901 C 44.54 15.32 63.37 C.3 41 C441 0
4902 H 43.01 14.95 62.25 H 41 C441 0
4903 H 45.13 14.69 62.98 H 41 C441 0
4904 H 44.12 14.94 64.13 H 41 C441 0
4905 C1 45.34 16.57 63.81 C.3 41 C441 0
4906 O2 45.54 16.78 65 O.3 41 C441 0
4907 O3 45.82 17.43 62.87 O.3 41 C441 0
4908 C 44.26 16.15 61.13 C.3 41 C441 0
4909 H 43.6 16.4 60.5 H 41 C441 0
4910 H 44.83 16.89 61.31 H 41 C441 0
4911 H 44.78 15.43 60.78 H 41 C441 0
4912 C 40.5 18.61 63.23 C.3 41 C441 0
4913 C 41.47 18.87 62.26 C.3 41 C441 0
4914 H 39.94 19.36 63.33 H 41 C441 0
4915 H 42.06 19.55 62.57 H 41 C441 0
4916 H 41.05 19.17 61.46 H 41 C441 0
4917 C1 42.27 17.59 61.96 C.3 41 C441 0
4918 O2 42.48 17.25 60.8 O.3 41 C441 0
4919 O3 42.75 16.83 62.99 O.3 41 C441 0
4920 C 41.19 18.3 64.57 C.3 41 C441 0
4921 H 40.54 18.12 65.23 H 41 C441 0
4922 H 41.76 17.55 64.47 H 41 C441 0
4923 H 41.71 19.05 64.84 H 41 C441 0
4924 C 37.44 15.63 62.76 C.3 41 C441 0
4925 C 38.41 15.47 63.76 C.3 41 C441 0
4926 H 36.87 14.86 62.75 H 41 C441 0
4927 H 39 14.76 63.52 H 41 C441 0
4928 H 37.98 15.26 64.58 H 41 C441 0
4929 C1 39.2 16.78 63.91 C.3 41 C441 0
4930 O2 39.41 17.25 65.03 O.3 41 C441 0
4931 O3 39.68 17.42 62.81 O.3 41 C441 0
4932 C 38.13 15.78 61.39 C.3 41 C441 0
4933 H 37.47 15.89 60.72 H 41 C441 0
4934 H 38.69 16.54 61.41 H 41 C441 0
4935 H 38.64 15 61.21 H 41 C441 0
4936 C 34.37 18.64 62.9 C.3 41 C441 0
4937 C 35.34 18.69 61.89 C.3 41 C441 0
4938 H 33.8 19.4 62.83 H 41 C441 0
4939 H 35.93 19.41 62.05 H 41 C441 0
4940 H 34.91 18.8 61.05 H 41 C441 0
4941 C1 36.14 17.37 61.88 C.3 41 C441 0
4942 O2 36.34 16.78 60.82 O.3 41 C441 0
4943 O3 36.61 16.86 63.05 O.3 41 C441 0
4944 C 35.06 18.64 64.27 C.3 41 C441 0
4945 H 34.4 18.61 64.96 H 41 C441 0
4946 H 35.62 17.88 64.34 H 41 C441 0
4947 H 35.58 19.43 64.37 H 41 C441 0
4948 C 31.3 15.63 63.1 C.3 41 C441 0
4949 C 32.27 15.7 64.1 C.3 41 C441 0
4950 H 30.73 14.88 63.25 H 41 C441 0
4951 H 32.86 14.95 64.02 H 41 C441 0
4952 H 31.85 15.67 64.95 H 41 C441 0
4953 C1 33.07 17.01 63.96 C.3 41 C441 0
4954 O2 33.27 17.71 64.95 O.3 41 C441 0
4955 O3 33.54 17.38 62.75 O.3 41 C441 0
4956 C 31.99 15.48 61.73 C.3 41 C441 0
4957 H 31.33 15.43 61.04 H 41 C441 0
4958 H 32.56 16.23 61.57 H 41 C441 0
4959 H 32.51 14.68 61.72 H 41 C441 0
4960 C 28.23 18.6 62.57 C.3 41 C441 0
4961 C 29.2 18.43 61.57 C.3 41 C441 0
4962 H 27.67 19.33 62.33 H 41 C441 0
4963 H 29.79 19.17 61.57 H 41 C441 0
4964 H 28.78 18.35 60.73 H 41 C441 0
4965 C1 30 17.14 61.86 C.3 41 C441 0
4966 O2 30.21 16.33 60.95 O.3 41 C441 0
4967 O3 30.48 16.9 63.11 O.3 41 C441 0
4968 C 28.92 18.9 63.91 C.3 41 C441 0
4969 H 28.27 19.02 64.58 H 41 C441 0
4970 H 29.49 18.18 64.14 H 41 C441 0
4971 H 29.44 19.7 63.83 H 41 C441 0
4972 C 25.17 15.71 63.42 C.3 41 C441 0
4973 C 26.14 15.99 64.39 C.3 41 C441 0
4974 H 24.6 15.01 63.74 H 41 C441 0
4975 H 26.73 15.25 64.47 H 41 C441 0
4976 H 25.71 16.16 65.22 H 41 C441 0
4977 C1 26.93 17.24 63.96 C.3 41 C441 0
4978 O2 27.14 18.14 64.77 O.3 41 C441 0
4979 O3 27.41 17.34 62.7 O.3 41 C441 0
4980 C 25.86 15.26 62.12 C.3 41 C441 0
4981 H 25.2 15.07 61.46 H 41 C441 0
4982 H 26.42 15.95 61.81 H 41 C441 0
4983 H 26.37 14.48 62.29 H 41 C441 0
4984 C 22.1 18.49 62.25 C.3 41 C441 0
4985 C 23.07 18.1 61.32 C.3 41 C441 0
4986 H 21.53 19.15 61.86 H 41 C441 0
4987 H 23.66 18.82 61.15 H 41 C441 0
4988 H 22.64 17.84 60.51 H 41 C441 0
4989 C1 23.87 16.91 61.88 C.3 41 C441 0
4990 O2 24.07 15.92 61.18 O.3 41 C441 0
4991 O3 24.34 16.94 63.15 O.3 41 C441 0
4992 C 22.79 19.08 63.5 C.3 41 C441 0
4993 H 22.13 19.35 64.13 H 41 C441 0
4994 H 23.35 18.42 63.88 H 41 C441 0
4995 H 23.31 19.84 63.24 H 41 C441 0
4996 C 19.03 15.85 63.72 C.3 41 C441 0
4997 C 20 16.35 64.6 C.3 41 C441 0
4998 H 18.46 15.25 64.18 H 41 C441 0
4999 H 20.59 15.64 64.85 H 41 C441 0
5000 H 19.58 16.69 65.38 H 41 C441 0
5001 C1 20.8 17.47 63.91 C.3 41 C441 0
5002 O2 21 18.53 64.51 O.3 41 C441 0
5003 O3 21.27 17.29 62.65 O.3 41 C441 0
5004 C 19.72 15.13 62.55 C.3 41 C441 0
5005 H 19.06 14.8 61.95 H 41 C441 0
5006 H 20.29 15.74 62.09 H 41 C441 0
5007 H 20.24 14.41 62.89 H 41 C441 0
5008 C 15.96 18.31 61.97 C.3 41 C441 0
5009 C 16.93 17.73 61.15 C.3 41 C441 0
5010 H 15.4 18.87 61.45 H 41 C441 0
5011 H 17.52 18.4 60.83 H 41 C441 0
5012 H 16.51 17.3 60.41 H 41 C441 0
5013 C1 17.73 16.69 61.96 C.3 41 C441 0
5014 O2 17.94 15.57 61.49 O.3 41 C441 0
5015 O3 18.21 17 63.19 O.3 41 C441 0
5016 C 16.65 19.16 63.05 C.3 41 C441 0
5017 H 16 19.56 63.61 H 41 C441 0
5018 H 17.22 18.61 63.58 H 41 C441 0
5019 H 17.17 19.84 62.64 H 41 C441 0
5020 C 12.89 16.06 63.98 C.3 41 C441 0
5021 C 13.87 16.74 64.74 C.3 41 C441 0
5022 H 12.33 15.57 64.56 H 41 C441 0
5023 H 14.45 16.11 65.13 H 41 C441 0
5024 H 13.44 17.24 65.42 H 41 C441 0
5025 C1 14.66 17.68 63.82 C.3 41 C441 0
5026 O2 14.87 18.85 64.16 O.3 41 C441 0
5027 O3 15.14 17.23 62.63 O.3 41 C441 0
5028 C 13.59 15.1 63 C.3 41 C441 0
5029 H 12.93 14.64 62.49 H 41 C441 0
5030 H 14.15 15.59 62.42 H 41 C441 0
5031 H 14.1 14.47 63.49 H 41 C441 0
5032 C 9.83 18.08 61.73 C.3 41 C441 0
5033 C 10.8 17.32 61.06 C.3 41 C441 0
5034 H 9.26 18.5 61.1 H 41 C441 0
5035 H 11.39 17.91 60.6 H 41 C441 0
5036 H 10.37 16.74 60.44 H 41 C441 0
5037 C1 11.59 16.49 62.08 C.3 41 C441 0
5038 O2 11.8 15.29 61.86 O.3 41 C441 0
5039 O3 12.07 17.07 63.21 O.3 41 C441 0
5040 C 10.52 19.14 62.6 C.3 41 C441 0
5041 H 9.86 19.65 63.06 H 41 C441 0
5042 H 11.08 18.72 63.24 H 41 C441 0
5043 H 11.04 19.72 62.05 H 41 C441 0
5044 C 6.76 16.33 64.19 C.3 41 C441 0
5045 C 7.73 17.15 64.78 C.3 41 C441 0
5046 H 6.19 15.97 64.87 H 41 C441 0
5047 H 8.32 16.62 65.3 H 41 C441 0
5048 H 7.31 17.79 65.33 H 41 C441 0
5049 C1 8.53 17.87 63.67 C.3 41 C441 0
5050 O2 8.73 19.08 63.75 O.3 41 C441 0
5051 O3 9 17.17 62.61 O.3 41 C441 0
5052 C 7.45 15.17 63.44 C.3 41 C441 0
5053 H 6.79 14.61 63.05 H 41 C441 0
5054 H 8.02 15.52 62.77 H 41 C441 0
5055 H 7.97 14.66 64.06 H 41 C441 0
5056 H 3.17 17.36 62.22 H 42 C442 0
5057 C 3.69 17.79 61.55 C.3 42 C442 0
5058 C 4.66 16.91 61.06 C.3 42 C442 0
5059 H 3.13 18.07 60.84 H 42 C442 0
5060 H 5.25 17.38 60.49 H 42 C442 0
5061 H 4.24 16.21 60.58 H 42 C442 0
5062 C1 5.46 16.32 62.24 C.3 42 C442 0
5063 O2 5.67 15.11 62.3 O.3 42 C442 0
5064 O3 5.94 17.13 63.22 O.3 42 C442 0
5065 C 4.38 19.03 62.17 C.3 42 C442 0
5066 H 3.72 19.62 62.5 H 42 C442 0
5067 H 4.95 18.75 62.88 H 42 C442 0
5068 H 4.9 19.46 61.5 H 42 C442 0
5069 C 92.65 17.88 73.03 C.3 43 C443 0
5070 C 93.62 17.04 72.48 C.3 43 C443 0
5071 H 92.09 18.21 72.34 H 43 C443 0
5072 H 94.21 17.55 71.94 H 43 C443 0
5073 H 93.2 16.37 71.95 H 43 C443 0
5074 C1 94.42 16.36 73.61 C.3 43 C443 0
5075 O2 94.63 15.15 73.58 O.3 43 C443 0
5076 O3 94.9 17.1 74.64 O.3 43 C443 0
5077 H5 95.42 16.55 75.22 H 43 C443 0
5078 C 93.34 19.06 73.74 C.3 43 C443 0
5079 H 92.68 19.64 74.11 H 43 C443 0
5080 H 93.91 18.74 74.42 H 43 C443 0
5081 H 93.86 19.55 73.1 H 43 C443 0
5082 C 89.58 16.52 75.72 C.3 44 C444 0
5083 C 90.55 17.42 76.18 C.3 44 C444 0
5084 H 89.02 16.27 76.44 H 44 C444 0
5085 H 91.15 16.97 76.78 H 44 C444 0
5086 H 90.13 18.14 76.63 H 44 C444 0
5087 C1 91.35 17.96 74.98 C.3 44 C444 0
5088 O2 91.56 19.17 74.88 O.3 44 C444 0
5089 O3 91.83 17.11 74.04 O.3 44 C444 0
5090 C 90.28 15.26 75.16 C.3 44 C444 0
5091 H 89.62 14.65 74.85 H 44 C444 0
5092 H 90.84 15.51 74.44 H 44 C444 0
5093 H 90.79 14.85 75.84 H 44 C444 0
5094 C 86.52 17.58 72.9 C.3 44 C444 0
5095 C 87.49 16.63 72.54 C.3 44 C444 0
5096 H 85.95 17.74 72.15 H 44 C444 0
5097 H 88.08 17.01 71.9 H 44 C444 0
5098 H 87.06 15.87 72.17 H 44 C444 0
5099 C1 88.28 16.22 73.8 C.3 44 C444 0
5100 O2 88.49 15.03 74.03 O.3 44 C444 0
5101 O3 88.76 17.17 74.64 O.3 44 C444 0
5102 C 87.21 18.89 73.32 C.3 44 C444 0
5103 H 86.55 19.53 73.56 H 44 C444 0
5104 H 87.77 18.72 74.07 H 44 C444 0
5105 H 87.73 19.22 72.6 H 44 C444 0
5106 C 83.45 16.84 75.82 C.3 44 C444 0
5107 C 84.42 17.81 76.07 C.3 44 C444 0
5108 H 82.88 16.75 76.58 H 44 C444 0
5109 H 85.01 17.51 76.75 H 44 C444 0
5110 H 84 18.62 76.36 H 44 C444 0
5111 C1 85.22 18.09 74.78 C.3 44 C444 0
5112 O2 85.42 19.24 74.42 O.3 44 C444 0
5113 O3 85.69 17.05 74.05 O.3 44 C444 0
5114 C 84.14 15.49 75.55 C.3 44 C444 0
5115 H 83.48 14.82 75.38 H 44 C444 0
5116 H 84.71 15.57 74.79 H 44 C444 0
5117 H 84.66 15.24 76.3 H 44 C444 0
5118 C 80.38 17.25 72.83 C.3 44 C444 0
5119 C 81.35 16.25 72.7 C.3 44 C444 0
5120 H 79.82 17.25 72.07 H 44 C444 0
5121 H 81.94 16.48 71.99 H 44 C444 0
5122 H 80.93 15.42 72.5 H 44 C444 0
5123 C1 82.15 16.12 74.01 C.3 44 C444 0
5124 O2 82.36 15.01 74.5 O.3 44 C444 0
5125 O3 82.63 17.24 74.62 O.3 44 C444 0
5126 C 81.07 18.62 72.96 C.3 44 C444 0
5127 H 80.41 19.3 73.06 H 44 C444 0
5128 H 81.64 18.62 73.72 H 44 C444 0
5129 H 81.59 18.79 72.18 H 44 C444 0
5130 C 77.31 17.17 75.85 C.3 44 C444 0
5131 C 78.28 18.18 75.88 C.3 44 C444 0
5132 H 76.75 17.25 76.61 H 44 C444 0
5133 H 78.88 18.03 76.61 H 44 C444 0
5134 H 77.86 19.02 75.98 H 44 C444 0
5135 C1 79.08 18.16 74.56 C.3 44 C444 0
5136 O2 79.29 19.21 73.95 O.3 44 C444 0
5137 O3 79.56 16.98 74.07 O.3 44 C444 0
5138 C 78.01 15.79 75.88 C.3 44 C444 0
5139 H 77.35 15.11 75.86 H 44 C444 0
5140 H 78.57 15.71 75.12 H 44 C444 0
5141 H 78.52 15.71 76.67 H 44 C444 0
5142 C 74.25 16.92 72.84 C.3 44 C444 0
5143 C 75.22 15.91 72.93 C.3 44 C444 0
5144 H 73.68 16.75 72.1 H 44 C444 0
5145 H 75.81 15.97 72.19 H 44 C444 0
5146 H 74.79 15.06 72.92 H 44 C444 0
5147 C1 76.01 16.07 74.24 C.3 44 C444 0
5148 O2 76.22 15.1 74.96 O.3 44 C444 0
5149 O3 76.49 17.3 74.59 O.3 44 C444 0
5150 C 74.94 18.28 72.67 C.3 44 C444 0
5151 H 74.28 18.96 72.61 H 44 C444 0
5152 H 75.5 18.45 73.41 H 44 C444 0
5153 H 75.46 18.27 71.87 H 44 C444 0
5154 C 71.18 17.5 75.81 C.3 44 C444 0
5155 C 72.15 18.49 75.61 C.3 44 C444 0
5156 H 70.61 17.75 76.53 H 44 C444 0
5157 H 72.74 18.51 76.35 H 44 C444 0
5158 H 71.73 19.34 75.52 H 44 C444 0
5159 C1 72.95 18.18 74.33 C.3 44 C444 0
5160 O2 73.15 19.07 73.5 O.3 44 C444 0
5161 O3 73.42 16.93 74.11 O.3 44 C444 0
5162 C 71.87 16.16 76.13 C.3 44 C444 0
5163 H 71.21 15.49 76.27 H 44 C444 0
5164 H 72.44 15.92 75.41 H 44 C444 0
5165 H 72.39 16.26 76.92 H 44 C444 0
5166 C 68.11 16.59 72.93 C.3 44 C444 0
5167 C 69.08 15.63 73.23 C.3 44 C444 0
5168 H 67.55 16.26 72.24 H 44 C444 0
5169 H 69.67 15.53 72.49 H 44 C444 0
5170 H 68.66 14.8 73.41 H 44 C444 0
5171 C1 69.88 16.08 74.47 C.3 44 C444 0
5172 O2 70.09 15.29 75.39 O.3 44 C444 0
5173 O3 70.36 17.35 74.55 O.3 44 C444 0
5174 C 68.8 17.88 72.45 C.3 44 C444 0
5175 H 68.14 18.54 72.25 H 44 C444 0
5176 H 69.37 18.21 73.14 H 44 C444 0
5177 H 69.32 17.7 71.68 H 44 C444 0
5178 C 65.04 17.81 75.69 C.3 44 C444 0
5179 C 66.01 18.74 75.28 C.3 44 C444 0
5180 H 64.48 18.22 76.34 H 44 C444 0
5181 H 66.6 18.92 76 H 44 C444 0
5182 H 65.59 19.54 75.01 H 44 C444 0
5183 C1 66.81 18.16 74.1 C.3 44 C444 0
5184 O2 67.02 18.84 73.1 O.3 44 C444 0
5185 O3 67.29 16.88 74.16 O.3 44 C444 0
5186 C 65.74 16.58 76.3 C.3 44 C444 0
5187 H 65.08 15.96 76.58 H 44 C444 0
5188 H 66.3 16.18 75.65 H 44 C444 0
5189 H 66.25 16.85 77.05 H 44 C444 0
5190 C 61.98 16.3 73.08 C.3 44 C444 0
5191 C 62.95 15.42 73.59 C.3 44 C444 0
5192 H 61.41 15.82 72.48 H 44 C444 0
5193 H 63.54 15.16 72.89 H 44 C444 0
5194 H 62.52 14.65 73.95 H 44 C444 0
5195 C1 63.74 16.13 74.7 C.3 44 C444 0
5196 O2 63.95 15.56 75.77 O.3 44 C444 0
5197 O3 64.22 17.39 74.5 O.3 44 C444 0
5198 C 62.67 17.45 72.33 C.3 44 C444 0
5199 H 62.01 18.04 71.99 H 44 C444 0
5200 H 63.23 17.92 72.93 H 44 C444 0
5201 H 63.19 17.1 71.62 H 44 C444 0
5202 C 58.91 18.09 75.5 C.3 44 C444 0
5203 C 59.88 18.9 74.9 C.3 44 C444 0
5204 H 58.34 18.63 76.05 H 44 C444 0
5205 H 60.47 19.24 75.57 H 44 C444 0
5206 H 59.46 19.63 74.46 H 44 C444 0
5207 C1 60.68 18.08 73.88 C.3 44 C444 0
5208 O2 60.88 18.53 72.75 O.3 44 C444 0
5209 O3 61.15 16.85 74.22 O.3 44 C444 0
5210 C 59.6 17.03 76.37 C.3 44 C444 0
5211 H 58.94 16.48 76.78 H 44 C444 0
5212 H 60.17 16.49 75.83 H 44 C444 0
5213 H 60.12 17.45 77.05 H 44 C444 0
5214 C 55.84 16.04 73.29 C.3 44 C444 0
5215 C 56.81 15.3 73.98 C.3 44 C444 0
5216 H 55.27 15.45 72.81 H 44 C444 0
5217 H 57.4 14.89 73.36 H 44 C444 0
5218 H 56.39 14.63 74.5 H 44 C444 0
5219 C1 57.61 16.23 74.91 C.3 44 C444 0
5220 O2 57.81 15.91 76.08 O.3 44 C444 0
5221 O3 58.09 17.42 74.43 O.3 44 C444 0
5222 C 56.53 17 72.31 C.3 44 C444 0
5223 H 55.87 17.51 71.85 H 44 C444 0
5224 H 57.1 17.59 72.79 H 44 C444 0
5225 H 57.05 16.51 71.69 H 44 C444 0
5226 C 52.77 18.33 75.26 C.3 44 C444 0
5227 C 53.74 18.99 74.5 C.3 44 C444 0
5228 H 52.21 18.97 75.68 H 44 C444 0
5229 H 54.33 19.46 75.07 H 44 C444 0
5230 H 53.32 19.6 73.91 H 44 C444 0
5231 C1 54.54 17.95 73.68 C.3 44 C444 0
5232 O2 54.75 18.14 72.48 O.3 44 C444 0
5233 O3 55.02 16.83 74.28 O.3 44 C444 0
5234 C 53.46 17.48 76.35 C.3 44 C444 0
5235 H 52.81 17.03 76.86 H 44 C444 0
5236 H 54.03 16.84 75.93 H 44 C444 0
5237 H 53.98 18.04 76.91 H 44 C444 0
5238 C 49.71 15.84 73.56 C.3 44 C444 0
5239 C 50.68 15.26 74.39 C.3 44 C444 0
5240 H 49.14 15.15 73.22 H 44 C444 0
5241 H 51.27 14.73 73.87 H 44 C444 0
5242 H 50.25 14.72 75.05 H 44 C444 0
5243 C1 51.47 16.38 75.09 C.3 44 C444 0
5244 O2 51.68 16.33 76.3 O.3 44 C444 0
5245 O3 51.95 17.43 74.37 O.3 44 C444 0
5246 C 50.4 16.56 72.39 C.3 44 C444 0
5247 H 49.74 16.95 71.82 H 44 C444 0
5248 H 50.96 17.24 72.73 H 44 C444 0
5249 H 50.91 15.94 71.89 H 44 C444 0
5250 C 46.64 18.5 74.98 C.3 44 C444 0
5251 C 47.61 18.98 74.09 C.3 44 C444 0
5252 H 46.07 19.22 75.24 H 44 C444 0
5253 H 48.2 19.56 74.54 H 44 C444 0
5254 H 47.19 19.44 73.38 H 44 C444 0
5255 C1 48.41 17.79 73.52 C.3 44 C444 0
5256 O2 48.61 17.71 72.31 O.3 44 C444 0
5257 O3 48.88 16.82 74.35 O.3 44 C444 0
5258 C 47.33 17.91 76.22 C.3 44 C444 0
5259 H 46.67 17.59 76.82 H 44 C444 0
5260 H 47.9 17.19 75.96 H 44 C444 0
5261 H 47.85 18.58 76.64 H 44 C444 0
5262 C 43.57 15.7 73.86 C.3 44 C444 0
5263 C 44.54 15.32 74.8 C.3 44 C444 0
5264 H 43.01 14.95 73.68 H 44 C444 0
5265 H 45.13 14.69 74.41 H 44 C444 0
5266 H 44.12 14.94 75.56 H 44 C444 0
5267 C1 45.34 16.57 75.24 C.3 44 C444 0
5268 O2 45.54 16.78 76.43 O.3 44 C444 0
5269 O3 45.82 17.43 74.3 O.3 44 C444 0
5270 C 44.26 16.15 72.56 C.3 44 C444 0
5271 H 43.6 16.4 71.93 H 44 C444 0
5272 H 44.83 16.89 72.74 H 44 C444 0
5273 H 44.78 15.43 72.21 H 44 C444 0
5274 C 40.5 18.61 74.66 C.3 44 C444 0
5275 C 41.47 18.87 73.69 C.3 44 C444 0
5276 H 39.94 19.36 74.76 H 44 C444 0
5277 H 42.06 19.55 74 H 44 C444 0
5278 H 41.05 19.17 72.89 H 44 C444 0
5279 C1 42.27 17.59 73.39 C.3 44 C444 0
5280 O2 42.48 17.25 72.23 O.3 44 C444 0
5281 O3 42.75 16.83 74.42 O.3 44 C444 0
5282 C 41.19 18.3 76 C.3 44 C444 0
5283 H 40.54 18.12 76.66 H 44 C444 0
5284 H 41.76 17.55 75.9 H 44 C444 0
5285 H 41.71 19.05 76.27 H 44 C444 0
5286 C 37.44 15.63 74.19 C.3 44 C444 0
5287 C 38.41 15.47 75.19 C.3 44 C444 0
5288 H 36.87 14.86 74.18 H 44 C444 0
5289 H 39 14.76 74.95 H 44 C444 0
5290 H 37.98 15.26 76.01 H 44 C444 0
5291 C1 39.2 16.78 75.34 C.3 44 C444 0
5292 O2 39.41 17.25 76.46 O.3 44 C444 0
5293 O3 39.68 17.42 74.24 O.3 44 C444 0
5294 C 38.13 15.78 72.82 C.3 44 C444 0
5295 H 37.47 15.89 72.15 H 44 C444 0
5296 H 38.69 16.54 72.84 H 44 C444 0
5297 H 38.64 15 72.64 H 44 C444 0
5298 C 34.37 18.64 74.33 C.3 44 C444 0
5299 C 35.34 18.69 73.32 C.3 44 C444 0
5300 H 33.8 19.4 74.26 H 44 C444 0
5301 H 35.93 19.41 73.48 H 44 C444 0
5302 H 34.91 18.8 72.48 H 44 C444 0
5303 C1 36.14 17.37 73.31 C.3 44 C444 0
5304 O2 36.34 16.78 72.25 O.3 44 C444 0
5305 O3 36.61 16.86 74.48 O.3 44 C444 0
5306 C 35.06 18.64 75.7 C.3 44 C444 0
5307 H 34.4 18.61 76.39 H 44 C444 0
5308 H 35.62 17.88 75.77 H 44 C444 0
5309 H 35.58 19.43 75.8 H 44 C444 0
5310 C 31.3 15.63 74.53 C.3 44 C444 0
5311 C 32.27 15.7 75.53 C.3 44 C444 0
5312 H 30.73 14.88 74.68 H 44 C444 0
5313 H 32.86 14.95 75.45 H 44 C444 0
5314 H 31.85 15.67 76.38 H 44 C444 0
5315 C1 33.07 17.01 75.39 C.3 44 C444 0
5316 O2 33.27 17.71 76.38 O.3 44 C444 0
5317 O3 33.54 17.38 74.18 O.3 44 C444 0
5318 C 31.99 15.48 73.16 C.3 44 C444 0
5319 H 31.33 15.43 72.47 H 44 C444 0
5320 H 32.56 16.23 73 H 44 C444 0
5321 H 32.51 14.68 73.15 H 44 C444 0
5322 C 28.23 18.6 74 C.3 44 C444 0
5323 C 29.2 18.43 73 C.3 44 C444 0
5324 H 27.67 19.33 73.76 H 44 C444 0
5325 H 29.79 19.17 73 H 44 C444 0
5326 H 28.78 18.35 72.16 H 44 C444 0
5327 C1 30 17.14 73.29 C.3 44 C444 0
5328 O2 30.21 16.33 72.38 O.3 44 C444 0
5329 O3 30.48 16.9 74.54 O.3 44 C444 0
5330 C 28.92 18.9 75.34 C.3 44 C444 0
5331 H 28.27 19.02 76.01 H 44 C444 0
5332 H 29.49 18.18 75.57 H 44 C444 0
5333 H 29.44 19.7 75.26 H 44 C444 0
5334 C 25.17 15.71 74.85 C.3 44 C444 0
5335 C 26.14 15.99 75.82 C.3 44 C444 0
5336 H 24.6 15.01 75.17 H 44 C444 0
5337 H 26.73 15.25 75.9 H 44 C444 0
5338 H 25.71 16.16 76.65 H 44 C444 0
5339 C1 26.93 17.24 75.39 C.3 44 C444 0
5340 O2 27.14 18.14 76.2 O.3 44 C444 0
5341 O3 27.41 17.34 74.13 O.3 44 C444 0
5342 C 25.86 15.26 73.55 C.3 44 C444 0
5343 H 25.2 15.07 72.89 H 44 C444 0
5344 H 26.42 15.95 73.24 H 44 C444 0
5345 H 26.37 14.48 73.72 H 44 C444 0
5346 C 22.1 18.49 73.68 C.3 44 C444 0
5347 C 23.07 18.1 72.75 C.3 44 C444 0
5348 H 21.53 19.15 73.29 H 44 C444 0
5349 H 23.66 18.82 72.58 H 44 C444 0
5350 H 22.64 17.84 71.94 H 44 C444 0
5351 C1 23.87 16.91 73.31 C.3 44 C444 0
5352 O2 24.07 15.92 72.61 O.3 44 C444 0
5353 O3 24.34 16.94 74.58 O.3 44 C444 0
5354 C 22.79 19.08 74.93 C.3 44 C444 0
5355 H 22.13 19.35 75.56 H 44 C444 0
5356 H 23.35 18.42 75.31 H 44 C444 0
5357 H 23.31 19.84 74.67 H 44 C444 0
5358 C 19.03 15.85 75.15 C.3 44 C444 0
5359 C 20 16.35 76.03 C.3 44 C444 0
5360 H 18.46 15.25 75.61 H 44 C444 0
5361 H 20.59 15.64 76.28 H 44 C444 0
5362 H 19.58 16.69 76.81 H 44 C444 0
5363 C1 20.8 17.47 75.34 C.3 44 C444 0
5364 O2 21 18.53 75.94 O.3 44 C444 0
5365 O3 21.27 17.29 74.08 O.3 44 C444 0
5366 C 19.72 15.13 73.98 C.3 44 C444 0
5367 H 19.06 14.8 73.38 H 44 C444 0
5368 H 20.29 15.74 73.52 H 44 C444 0
5369 H 20.24 14.41 74.32 H 44 C444 0
5370 C 15.96 18.31 73.4 C.3 44 C444 0
5371 C 16.93 17.73 72.58 C.3 44 C444 0
5372 H 15.4 18.87 72.88 H 44 C444 0
5373 H 17.52 18.4 72.26 H 44 C444 0
5374 H 16.51 17.3 71.84 H 44 C444 0
5375 C1 17.73 16.69 73.39 C.3 44 C444 0
5376 O2 17.94 15.57 72.92 O.3 44 C444 0
5377 O3 18.21 17 74.62 O.3 44 C444 0
5378 C 16.65 19.16 74.48 C.3 44 C444 0
5379 H 16 19.56 75.04 H 44 C444 0
5380 H 17.22 18.61 75.01 H 44 C444 0
5381 H 17.17 19.84 74.07 H 44 C444 0
5382 C 12.89 16.06 75.41 C.3 44 C444 0
5383 C 13.87 16.74 76.17 C.3 44 C444 0
5384 H 12.33 15.57 75.99 H 44 C444 0
5385 H 14.45 16.11 76.56 H 44 C444 0
5386 H 13.44 17.24 76.85 H 44 C444 0
5387 C1 14.66 17.68 75.25 C.3 44 C444 0
5388 O2 14.87 18.85 75.59 O.3 44 C444 0
5389 O3 15.14 17.23 74.06 O.3 44 C444 0
5390 C 13.59 15.1 74.43 C.3 44 C444 0
5391 H 12.93 14.64 73.92 H 44 C444 0
5392 H 14.15 15.59 73.85 H 44 C444 0
5393 H 14.1 14.47 74.92 H 44 C444 0
5394 C 9.83 18.08 73.16 C.3 44 C444 0
5395 C 10.8 17.32 72.49 C.3 44 C444 0
5396 H 9.26 18.5 72.53 H 44 C444 0
5397 H 11.39 17.91 72.03 H 44 C444 0
5398 H 10.37 16.74 71.87 H 44 C444 0
5399 C1 11.59 16.49 73.51 C.3 44 C444 0
5400 O2 11.8 15.29 73.29 O.3 44 C444 0
5401 O3 12.07 17.07 74.64 O.3 44 C444 0
5402 C 10.52 19.14 74.03 C.3 44 C444 0
5403 H 9.86 19.65 74.49 H 44 C444 0
5404 H 11.08 18.72 74.67 H 44 C444 0
5405 H 11.04 19.72 73.48 H 44 C444 0
5406 C 6.76 16.33 75.62 C.3 44 C444 0
5407 C 7.73 17.15 76.21 C.3 44 C444 0
5408 H 6.19 15.97 76.3 H 44 C444 0
5409 H 8.32 16.62 76.73 H 44 C444 0
5410 H 7.31 17.79 76.76 H 44 C444 0
5411 C1 8.53 17.87 75.1 C.3 44 C444 0
5412 O2 8.73 19.08 75.18 O.3 44 C444 0
5413 O3 9 17.17 74.04 O.3 44 C444 0
5414 C 7.45 15.17 74.87 C.3 44 C444 0
5415 H 6.79 14.61 74.48 H 44 C444 0
5416 H 8.02 15.52 74.2 H 44 C444 0
5417 H 7.97 14.66 75.49 H 44 C444 0
5418 H 3.17 17.36 73.65 H 45 C445 0
5419 C 3.69 17.79 72.98 C.3 45 C445 0
5420 C 4.66 16.91 72.49 C.3 45 C445 0
5421 H 3.13 18.07 72.27 H 45 C445 0
5422 H 5.25 17.38 71.92 H 45 C445 0
5423 H 4.24 16.21 72.01 H 45 C445 0
5424 C1 5.46 16.32 73.67 C.3 45 C445 0
5425 O2 5.67 15.11 73.73 O.3 45 C445 0
5426 O3 5.94 17.13 74.65 O.3 45 C445 0
5427 C 4.38 19.03 73.6 C.3 45 C445 0
5428 H 3.72 19.62 73.93 H 45 C445 0
5429 H 4.95 18.75 74.31 H 45 C445 0
5430 H 4.9 19.46 72.93 H 45 C445 0
5431 C 92.65 17.88 84.46 C.3 46 C446 0
5432 C 93.62 17.04 83.91 C.3 46 C446 0
5433 H 92.09 18.21 83.77 H 46 C446 0
5434 H 94.21 17.55 83.37 H 46 C446 0
5435 H 93.2 16.37 83.38 H 46 C446 0
5436 C1 94.42 16.36 85.04 C.3 46 C446 0
5437 O2 94.63 15.15 85.01 O.3 46 C446 0
5438 O3 94.9 17.1 86.07 O.3 46 C446 0
5439 H5 95.42 16.55 86.65 H 46 C446 0
5440 C 93.34 19.06 85.17 C.3 46 C446 0
5441 H 92.68 19.64 85.54 H 46 C446 0
5442 H 93.91 18.74 85.85 H 46 C446 0
5443 H 93.86 19.55 84.53 H 46 C446 0
5444 C 89.58 16.52 87.15 C.3 47 C447 0
5445 C 90.55 17.42 87.61 C.3 47 C447 0
5446 H 89.02 16.27 87.87 H 47 C447 0
5447 H 91.15 16.97 88.21 H 47 C447 0
5448 H 90.13 18.14 88.06 H 47 C447 0
5449 C1 91.35 17.96 86.41 C.3 47 C447 0
5450 O2 91.56 19.17 86.31 O.3 47 C447 0
5451 O3 91.83 17.11 85.47 O.3 47 C447 0
5452 C 90.28 15.26 86.59 C.3 47 C447 0
5453 H 89.62 14.65 86.28 H 47 C447 0
5454 H 90.84 15.51 85.87 H 47 C447 0
5455 H 90.79 14.85 87.27 H 47 C447 0
5456 C 86.52 17.58 84.33 C.3 47 C447 0
5457 C 87.49 16.63 83.97 C.3 47 C447 0
5458 H 85.95 17.74 83.58 H 47 C447 0
5459 H 88.08 17.01 83.33 H 47 C447 0
5460 H 87.06 15.87 83.6 H 47 C447 0
5461 C1 88.28 16.22 85.23 C.3 47 C447 0
5462 O2 88.49 15.03 85.46 O.3 47 C447 0
5463 O3 88.76 17.17 86.07 O.3 47 C447 0
5464 C 87.21 18.89 84.75 C.3 47 C447 0
5465 H 86.55 19.53 84.99 H 47 C447 0
5466 H 87.77 18.72 85.5 H 47 C447 0
5467 H 87.73 19.22 84.03 H 47 C447 0
5468 C 83.45 16.84 87.25 C.3 47 C447 0
5469 C 84.42 17.81 87.5 C.3 47 C447 0
5470 H 82.88 16.75 88.01 H 47 C447 0
5471 H 85.01 17.51 88.18 H 47 C447 0
5472 H 84 18.62 87.79 H 47 C447 0
5473 C1 85.22 18.09 86.21 C.3 47 C447 0
5474 O2 85.42 19.24 85.85 O.3 47 C447 0
5475 O3 85.69 17.05 85.48 O.3 47 C447 0
5476 C 84.14 15.49 86.98 C.3 47 C447 0
5477 H 83.48 14.82 86.81 H 47 C447 0
5478 H 84.71 15.57 86.22 H 47 C447 0
5479 H 84.66 15.24 87.73 H 47 C447 0
5480 C 80.38 17.25 84.26 C.3 47 C447 0
5481 C 81.35 16.25 84.13 C.3 47 C447 0
5482 H 79.82 17.25 83.5 H 47 C447 0
5483 H 81.94 16.48 83.42 H 47 C447 0
5484 H 80.93 15.42 83.93 H 47 C447 0
5485 C1 82.15 16.12 85.44 C.3 47 C447 0
5486 O2 82.36 15.01 85.93 O.3 47 C447 0
5487 O3 82.63 17.24 86.05 O.3 47 C447 0
5488 C 81.07 18.62 84.39 C.3 47 C447 0
5489 H 80.41 19.3 84.49 H 47 C447 0
5490 H 81.64 18.62 85.15 H 47 C447 0
5491 H 81.59 18.79 83.61 H 47 C447 0
5492 C 77.31 17.17 87.28 C.3 47 C447 0
5493 C 78.28 18.18 87.31 C.3 47 C447 0
5494 H 76.75 17.25 88.04 H 47 C447 0
5495 H 78.88 18.03 88.04 H 47 C447 0
5496 H 77.86 19.02 87.41 H 47 C447 0
5497 C1 79.08 18.16 85.99 C.3 47 C447 0
5498 O2 79.29 19.21 85.38 O.3 47 C447 0
5499 O3 79.56 16.98 85.5 O.3 47 C447 0
5500 C 78.01 15.79 87.31 C.3 47 C447 0
5501 H 77.35 15.11 87.29 H 47 C447 0
5502 H 78.57 15.71 86.55 H 47 C447 0
5503 H 78.52 15.71 88.1 H 47 C447 0
5504 C 74.25 16.92 84.27 C.3 47 C447 0
5505 C 75.22 15.91 84.36 C.3 47 C447 0
5506 H 73.68 16.75 83.53 H 47 C447 0
5507 H 75.81 15.97 83.62 H 47 C447 0
5508 H 74.79 15.06 84.35 H 47 C447 0
5509 C1 76.01 16.07 85.67 C.3 47 C447 0
5510 O2 76.22 15.1 86.39 O.3 47 C447 0
5511 O3 76.49 17.3 86.02 O.3 47 C447 0
5512 C 74.94 18.28 84.1 C.3 47 C447 0
5513 H 74.28 18.96 84.04 H 47 C447 0
5514 H 75.5 18.45 84.84 H 47 C447 0
5515 H 75.46 18.27 83.3 H 47 C447 0
5516 C 71.18 17.5 87.24 C.3 47 C447 0
5517 C 72.15 18.49 87.04 C.3 47 C447 0
5518 H 70.61 17.75 87.96 H 47 C447 0
5519 H 72.74 18.51 87.78 H 47 C447 0
5520 H 71.73 19.34 86.95 H 47 C447 0
5521 C1 72.95 18.18 85.76 C.3 47 C447 0
5522 O2 73.15 19.07 84.93 O.3 47 C447 0
5523 O3 73.42 16.93 85.54 O.3 47 C447 0
5524 C 71.87 16.16 87.56 C.3 47 C447 0
5525 H 71.21 15.49 87.7 H 47 C447 0
5526 H 72.44 15.92 86.84 H 47 C447 0
5527 H 72.39 16.26 88.35 H 47 C447 0
5528 C 68.11 16.59 84.36 C.3 47 C447 0
5529 C 69.08 15.63 84.66 C.3 47 C447 0
5530 H 67.55 16.26 83.67 H 47 C447 0
5531 H 69.67 15.53 83.92 H 47 C447 0
5532 H 68.66 14.8 84.84 H 47 C447 0
5533 C1 69.88 16.08 85.9 C.3 47 C447 0
5534 O2 70.09 15.29 86.82 O.3 47 C447 0
5535 O3 70.36 17.35 85.98 O.3 47 C447 0
5536 C 68.8 17.88 83.88 C.3 47 C447 0
5537 H 68.14 18.54 83.68 H 47 C447 0
5538 H 69.37 18.21 84.57 H 47 C447 0
5539 H 69.32 17.7 83.11 H 47 C447 0
5540 C 65.04 17.81 87.12 C.3 47 C447 0
5541 C 66.01 18.74 86.71 C.3 47 C447 0
5542 H 64.48 18.22 87.77 H 47 C447 0
5543 H 66.6 18.92 87.43 H 47 C447 0
5544 H 65.59 19.54 86.44 H 47 C447 0
5545 C1 66.81 18.16 85.53 C.3 47 C447 0
5546 O2 67.02 18.84 84.53 O.3 47 C447 0
5547 O3 67.29 16.88 85.59 O.3 47 C447 0
5548 C 65.74 16.58 87.73 C.3 47 C447 0
5549 H 65.08 15.96 88.01 H 47 C447 0
5550 H 66.3 16.18 87.08 H 47 C447 0
5551 H 66.25 16.85 88.48 H 47 C447 0
5552 C 61.98 16.3 84.51 C.3 47 C447 0
5553 C 62.95 15.42 85.02 C.3 47 C447 0
5554 H 61.41 15.82 83.91 H 47 C447 0
5555 H 63.54 15.16 84.32 H 47 C447 0
5556 H 62.52 14.65 85.38 H 47 C447 0
5557 C1 63.74 16.13 86.13 C.3 47 C447 0
5558 O2 63.95 15.56 87.2 O.3 47 C447 0
5559 O3 64.22 17.39 85.93 O.3 47 C447 0
5560 C 62.67 17.45 83.76 C.3 47 C447 0
5561 H 62.01 18.04 83.42 H 47 C447 0
5562 H 63.23 17.92 84.36 H 47 C447 0
5563 H 63.19 17.1 83.05 H 47 C447 0
5564 C 58.91 18.09 86.93 C.3 47 C447 0
5565 C 59.88 18.9 86.33 C.3 47 C447 0
5566 H 58.34 18.63 87.48 H 47 C447 0
5567 H 60.47 19.24 87 H 47 C447 0
5568 H 59.46 19.63 85.89 H 47 C447 0
5569 C1 60.68 18.08 85.31 C.3 47 C447 0
5570 O2 60.88 18.53 84.18 O.3 47 C447 0
5571 O3 61.15 16.85 85.65 O.3 47 C447 0
5572 C 59.6 17.03 87.8 C.3 47 C447 0
5573 H 58.94 16.48 88.21 H 47 C447 0
5574 H 60.17 16.49 87.26 H 47 C447 0
5575 H 60.12 17.45 88.48 H 47 C447 0
5576 C 55.84 16.04 84.72 C.3 47 C447 0
5577 C 56.81 15.3 85.41 C.3 47 C447 0
5578 H 55.27 15.45 84.24 H 47 C447 0
5579 H 57.4 14.89 84.79 H 47 C447 0
5580 H 56.39 14.63 85.93 H 47 C447 0
5581 C1 57.61 16.23 86.34 C.3 47 C447 0
5582 O2 57.81 15.91 87.51 O.3 47 C447 0
5583 O3 58.09 17.42 85.86 O.3 47 C447 0
5584 C 56.53 17 83.74 C.3 47 C447 0
5585 H 55.87 17.51 83.28 H 47 C447 0
5586 H 57.1 17.59 84.22 H 47 C447 0
5587 H 57.05 16.51 83.12 H 47 C447 0
5588 C 52.77 18.33 86.69 C.3 47 C447 0
5589 C 53.74 18.99 85.93 C.3 47 C447 0
5590 H 52.21 18.97 87.11 H 47 C447 0
5591 H 54.33 19.46 86.5 H 47 C447 0
5592 H 53.32 19.6 85.34 H 47 C447 0
5593 C1 54.54 17.95 85.11 C.3 47 C447 0
5594 O2 54.75 18.14 83.91 O.3 47 C447 0
5595 O3 55.02 16.83 85.71 O.3 47 C447 0
5596 C 53.46 17.48 87.78 C.3 47 C447 0
5597 H 52.81 17.03 88.29 H 47 C447 0
5598 H 54.03 16.84 87.36 H 47 C447 0
5599 H 53.98 18.04 88.34 H 47 C447 0
5600 C 49.71 15.84 84.99 C.3 47 C447 0
5601 C 50.68 15.26 85.82 C.3 47 C447 0
5602 H 49.14 15.15 84.65 H 47 C447 0
5603 H 51.27 14.73 85.3 H 47 C447 0
5604 H 50.25 14.72 86.48 H 47 C447 0
5605 C1 51.47 16.38 86.52 C.3 47 C447 0
5606 O2 51.68 16.33 87.73 O.3 47 C447 0
5607 O3 51.95 17.43 85.8 O.3 47 C447 0
5608 C 50.4 16.56 83.82 C.3 47 C447 0
5609 H 49.74 16.95 83.25 H 47 C447 0
5610 H 50.96 17.24 84.16 H 47 C447 0
5611 H 50.91 15.94 83.32 H 47 C447 0
5612 C 46.64 18.5 86.41 C.3 47 C447 0
5613 C 47.61 18.98 85.52 C.3 47 C447 0
5614 H 46.07 19.22 86.67 H 47 C447 0
5615 H 48.2 19.56 85.97 H 47 C447 0
5616 H 47.19 19.44 84.81 H 47 C447 0
5617 C1 48.41 17.79 84.95 C.3 47 C447 0
5618 O2 48.61 17.71 83.74 O.3 47 C447 0
5619 O3 48.88 16.82 85.78 O.3 47 C447 0
5620 C 47.33 17.91 87.65 C.3 47 C447 0
5621 H 46.67 17.59 88.25 H 47 C447 0
5622 H 47.9 17.19 87.39 H 47 C447 0
5623 H 47.85 18.58 88.07 H 47 C447 0
5624 C 43.57 15.7 85.29 C.3 47 C447 0
5625 C 44.54 15.32 86.23 C.3 47 C447 0
5626 H 43.01 14.95 85.11 H 47 C447 0
5627 H 45.13 14.69 85.84 H 47 C447 0
5628 H 44.12 14.94 86.99 H 47 C447 0
5629 C1 45.34 16.57 86.67 C.3 47 C447 0
5630 O2 45.54 16.78 87.86 O.3 47 C447 0
5631 O3 45.82 17.43 85.73 O.3 47 C447 0
5632 C 44.26 16.15 83.99 C.3 47 C447 0
5633 H 43.6 16.4 83.36 H 47 C447 0
5634 H 44.83 16.89 84.17 H 47 C447 0
5635 H 44.78 15.43 83.64 H 47 C447 0
5636 C 40.5 18.61 86.09 C.3 47 C447 0
5637 C 41.47 18.87 85.12 C.3 47 C447 0
5638 H 39.94 19.36 86.19 H 47 C447 0
5639 H 42.06 19.55 85.43 H 47 C447 0
5640 H 41.05 19.17 84.32 H 47 C447 0
5641 C1 42.27 17.59 84.82 C.3 47 C447 0
5642 O2 42.48 17.25 83.66 O.3 47 C447 0
5643 O3 42.75 16.83 85.85 O.3 47 C447 0
5644 C 41.19 18.3 87.43 C.3 47 C447 0
5645 H 40.54 18.12 88.09 H 47 C447 0
5646 H 41.76 17.55 87.33 H 47 C447 0
5647 H 41.71 19.05 87.7 H 47 C447 0
5648 C 37.44 15.63 85.62 C.3 47 C447 0
5649 C 38.41 15.47 86.62 C.3 47 C447 0
5650 H 36.87 14.86 85.61 H 47 C447 0
5651 H 39 14.76 86.38 H 47 C447 0
5652 H 37.98 15.26 87.44 H 47 C447 0
5653 C1 39.2 16.78 86.77 C.3 47 C447 0
5654 O2 39.41 17.25 87.89 O.3 47 C447 0
5655 O3 39.68 17.42 85.67 O.3 47 C447 0
5656 C 38.13 15.78 84.25 C.3 47 C447 0
5657 H 37.47 15.89 83.58 H 47 C447 0
5658 H 38.69 16.54 84.27 H 47 C447 0
5659 H 38.64 15 84.07 H 47 C447 0
5660 C 34.37 18.64 85.76 C.3 47 C447 0
5661 C 35.34 18.69 84.75 C.3 47 C447 0
5662 H 33.8 19.4 85.69 H 47 C447 0
5663 H 35.93 19.41 84.91 H 47 C447 0
5664 H 34.91 18.8 83.91 H 47 C447 0
5665 C1 36.14 17.37 84.74 C.3 47 C447 0
5666 O2 36.34 16.78 83.68 O.3 47 C447 0
5667 O3 36.61 16.86 85.91 O.3 47 C447 0
5668 C 35.06 18.64 87.13 C.3 47 C447 0
5669 H 34.4 18.61 87.82 H 47 C447 0
5670 H 35.62 17.88 87.2 H 47 C447 0
5671 H 35.58 19.43 87.23 H 47 C447 0
5672 C 31.3 15.63 85.96 C.3 47 C447 0
5673 C 32.27 15.7 86.96 C.3 47 C447 0
5674 H 30.73 14.88 86.11 H 47 C447 0
5675 H 32.86 14.95 86.88 H 47 C447 0
5676 H 31.85 15.67 87.81 H 47 C447 0
5677 C1 33.07 17.01 86.82 C.3 47 C447 0
5678 O2 33.27 17.71 87.81 O.3 47 C447 0
5679 O3 33.54 17.38 85.61 O.3 47 C447 0
5680 C 31.99 15.48 84.59 C.3 47 C447 0
5681 H 31.33 15.43 83.9 H 47 C447 0
5682 H 32.56 16.23 84.43 H 47 C447 0
5683 H 32.51 14.68 84.58 H 47 C447 0
5684 C 28.23 18.6 85.43 C.3 47 C447 0
5685 C 29.2 18.43 84.43 C.3 47 C447 0
5686 H 27.67 19.33 85.19 H 47 C447 0
5687 H 29.79 19.17 84.43 H 47 C447 0
5688 H 28.78 18.35 83.59 H 47 C447 0
5689 C1 30 17.14 84.72 C.3 47 C447 0
5690 O2 30.21 16.33 83.81 O.3 47 C447 0
5691 O3 30.48 16.9 85.97 O.3 47 C447 0
5692 C 28.92 18.9 86.77 C.3 47 C447 0
5693 H 28.27 19.02 87.44 H 47 C447 0
5694 H 29.49 18.18 87 H 47 C447 0
5695 H 29.44 19.7 86.69 H 47 C447 0
5696 C 25.17 15.71 86.28 C.3 47 C447 0
5697 C 26.14 15.99 87.25 C.3 47 C447 0
5698 H 24.6 15.01 86.6 H 47 C447 0
5699 H 26.73 15.25 87.33 H 47 C447 0
5700 H 25.71 16.16 88.08 H 47 C447 0
5701 C1 26.93 17.24 86.82 C.3 47 C447 0
5702 O2 27.14 18.14 87.63 O.3 47 C447 0
5703 O3 27.41 17.34 85.56 O.3 47 C447 0
5704 C 25.86 15.26 84.98 C.3 47 C447 0
5705 H 25.2 15.07 84.32 H 47 C447 0
5706 H 26.42 15.95 84.67 H 47 C447 0
5707 H 26.37 14.48 85.15 H 47 C447 0
5708 C 22.1 18.49 85.11 C.3 47 C447 0
5709 C 23.07 18.1 84.18 C.3 47 C447 0
5710 H 21.53 19.15 84.72 H 47 C447 0
5711 H 23.66 18.82 84.01 H 47 C447 0
5712 H 22.64 17.84 83.37 H 47 C447 0
5713 C1 23.87 16.91 84.74 C.3 47 C447 0
5714 O2 24.07 15.92 84.04 O.3 47 C447 0
5715 O3 24.34 16.94 86.01 O.3 47 C447 0
5716 C 22.79 19.08 86.36 C.3 47 C447 0
5717 H 22.13 19.35 86.99 H 47 C447 0
5718 H 23.35 18.42 86.74 H 47 C447 0
5719 H 23.31 19.84 86.1 H 47 C447 0
5720 C 19.03 15.85 86.58 C.3 47 C447 0
5721 C 20 16.35 87.46 C.3 47 C447 0
5722 H 18.46 15.25 87.04 H 47 C447 0
5723 H 20.59 15.64 87.71 H 47 C447 0
5724 H 19.58 16.69 88.24 H 47 C447 0
5725 C1 20.8 17.47 86.77 C.3 47 C447 0
5726 O2 21 18.53 87.37 O.3 47 C447 0
5727 O3 21.27 17.29 85.51 O.3 47 C447 0
5728 C 19.72 15.13 85.41 C.3 47 C447 0
5729 H 19.06 14.8 84.81 H 47 C447 0
5730 H 20.29 15.74 84.95 H 47 C447 0
5731 H 20.24 14.41 85.75 H 47 C447 0
5732 C 15.96 18.31 84.83 C.3 47 C447 0
5733 C 16.93 17.73 84.01 C.3 47 C447 0
5734 H 15.4 18.87 84.31 H 47 C447 0
5735 H 17.52 18.4 83.69 H 47 C447 0
5736 H 16.51 17.3 83.27 H 47 C447 0
5737 C1 17.73 16.69 84.82 C.3 47 C447 0
5738 O2 17.94 15.57 84.35 O.3 47 C447 0
5739 O3 18.21 17 86.05 O.3 47 C447 0
5740 C 16.65 19.16 85.91 C.3 47 C447 0
5741 H 16 19.56 86.47 H 47 C447 0
5742 H 17.22 18.61 86.44 H 47 C447 0
5743 H 17.17 19.84 85.5 H 47 C447 0
5744 C 12.89 16.06 86.84 C.3 47 C447 0
5745 C 13.87 16.74 87.6 C.3 47 C447 0
5746 H 12.33 15.57 87.42 H 47 C447 0
5747 H 14.45 16.11 87.99 H 47 C447 0
5748 H 13.44 17.24 88.28 H 47 C447 0
5749 C1 14.66 17.68 86.68 C.3 47 C447 0
5750 O2 14.87 18.85 87.02 O.3 47 C447 0
5751 O3 15.14 17.23 85.49 O.3 47 C447 0
5752 C 13.59 15.1 85.86 C.3 47 C447 0
5753 H 12.93 14.64 85.35 H 47 C447 0
5754 H 14.15 15.59 85.28 H 47 C447 0
5755 H 14.1 14.47 86.35 H 47 C447 0
5756 C 9.83 18.08 84.59 C.3 47 C447 0
5757 C 10.8 17.32 83.92 C.3 47 C447 0
5758 H 9.26 18.5 83.96 H 47 C447 0
5759 H 11.39 17.91 83.46 H 47 C447 0
5760 H 10.37 16.74 83.3 H 47 C447 0
5761 C1 11.59 16.49 84.94 C.3 47 C447 0
5762 O2 11.8 15.29 84.72 O.3 47 C447 0
5763 O3 12.07 17.07 86.07 O.3 47 C447 0
5764 C 10.52 19.14 85.46 C.3 47 C447 0
5765 H 9.86 19.65 85.92 H 47 C447 0
5766 H 11.08 18.72 86.1 H 47 C447 0
5767 H 11.04 19.72 84.91 H 47 C447 0
5768 C 6.76 16.33 87.05 C.3 47 C447 0
5769 C 7.73 17.15 87.64 C.3 47 C447 0
5770 H 6.19 15.97 87.73 H 47 C447 0
5771 H 8.32 16.62 88.16 H 47 C447 0
5772 H 7.31 17.79 88.19 H 47 C447 0
5773 C1 8.53 17.87 86.53 C.3 47 C447 0
5774 O2 8.73 19.08 86.61 O.3 47 C447 0
5775 O3 9 17.17 85.47 O.3 47 C447 0
5776 C 7.45 15.17 86.3 C.3 47 C447 0
5777 H 6.79 14.61 85.91 H 47 C447 0
5778 H 8.02 15.52 85.63 H 47 C447 0
5779 H 7.97 14.66 86.92 H 47 C447 0
5780 H 3.17 17.36 85.08 H 48 C448 0
5781 C 3.69 17.79 84.41 C.3 48 C448 0
5782 C 4.66 16.91 83.92 C.3 48 C448 0
5783 H 3.13 18.07 83.7 H 48 C448 0
5784 H 5.25 17.38 83.35 H 48 C448 0
5785 H 4.24 16.21 83.44 H 48 C448 0
5786 C1 5.46 16.32 85.1 C.3 48 C448 0
5787 O2 5.67 15.11 85.16 O.3 48 C448 0
5788 O3 5.94 17.13 86.08 O.3 48 C448 0
5789 C 4.38 19.03 85.03 C.3 48 C448 0
5790 H 3.72 19.62 85.36 H 48 C448 0
5791 H 4.95 18.75 85.74 H 48 C448 0
5792 H 4.9 19.46 84.36 H 48 C448 0
5793 C 92.65 29.31 4.44 C.3 49 C449 0
5794 C 93.62 28.47 3.89 C.3 49 C449 0
5795 H 92.09 29.64 3.75 H 49 C449 0
5796 H 94.21 28.98 3.35 H 49 C449 0
5797 H 93.2 27.8 3.36 H 49 C449 0
5798 C1 94.42 27.79 5.02 C.3 49 C449 0
5799 O2 94.63 26.58 4.99 O.3 49 C449 0
5800 O3 94.9 28.53 6.05 O.3 49 C449 0
5801 H5 95.42 27.98 6.63 H 49 C449 0
5802 C 93.34 30.49 5.15 C.3 49 C449 0
5803 H 92.68 31.07 5.52 H 49 C449 0
5804 H 93.91 30.17 5.83 H 49 C449 0
5805 H 93.86 30.98 4.51 H 49 C449 0
5806 C 89.58 27.95 7.13 C.3 50 C450 0
5807 C 90.55 28.85 7.59 C.3 50 C450 0
5808 H 89.02 27.7 7.85 H 50 C450 0
5809 H 91.15 28.4 8.19 H 50 C450 0
5810 H 90.13 29.57 8.04 H 50 C450 0
5811 C1 91.35 29.39 6.39 C.3 50 C450 0
5812 O2 91.56 30.6 6.29 O.3 50 C450 0
5813 O3 91.83 28.54 5.45 O.3 50 C450 0
5814 C 90.28 26.69 6.57 C.3 50 C450 0
5815 H 89.62 26.08 6.26 H 50 C450 0
5816 H 90.84 26.94 5.85 H 50 C450 0
5817 H 90.79 26.28 7.25 H 50 C450 0
5818 C 86.52 29.01 4.31 C.3 50 C450 0
5819 C 87.49 28.06 3.95 C.3 50 C450 0
5820 H 85.95 29.17 3.56 H 50 C450 0
5821 H 88.08 28.44 3.31 H 50 C450 0
5822 H 87.06 27.3 3.58 H 50 C450 0
5823 C1 88.28 27.65 5.21 C.3 50 C450 0
5824 O2 88.49 26.46 5.44 O.3 50 C450 0
5825 O3 88.76 28.6 6.05 O.3 50 C450 0
5826 C 87.21 30.32 4.73 C.3 50 C450 0
5827 H 86.55 30.96 4.97 H 50 C450 0
5828 H 87.77 30.15 5.48 H 50 C450 0
5829 H 87.73 30.65 4.01 H 50 C450 0
5830 C 83.45 28.27 7.23 C.3 50 C450 0
5831 C 84.42 29.24 7.48 C.3 50 C450 0
5832 H 82.88 28.18 7.99 H 50 C450 0
5833 H 85.01 28.94 8.16 H 50 C450 0
5834 H 84 30.05 7.77 H 50 C450 0
5835 C1 85.22 29.52 6.19 C.3 50 C450 0
5836 O2 85.42 30.67 5.83 O.3 50 C450 0
5837 O3 85.69 28.48 5.46 O.3 50 C450 0
5838 C 84.14 26.92 6.96 C.3 50 C450 0
5839 H 83.48 26.25 6.79 H 50 C450 0
5840 H 84.71 27 6.2 H 50 C450 0
5841 H 84.66 26.67 7.71 H 50 C450 0
5842 C 80.38 28.68 4.24 C.3 50 C450 0
5843 C 81.35 27.68 4.11 C.3 50 C450 0
5844 H 79.82 28.68 3.48 H 50 C450 0
5845 H 81.94 27.91 3.4 H 50 C450 0
5846 H 80.93 26.85 3.91 H 50 C450 0
5847 C1 82.15 27.55 5.42 C.3 50 C450 0
5848 O2 82.36 26.44 5.91 O.3 50 C450 0
5849 O3 82.63 28.67 6.03 O.3 50 C450 0
5850 C 81.07 30.05 4.37 C.3 50 C450 0
5851 H 80.41 30.73 4.47 H 50 C450 0
5852 H 81.64 30.05 5.13 H 50 C450 0
5853 H 81.59 30.22 3.59 H 50 C450 0
5854 C 77.31 28.6 7.26 C.3 50 C450 0
5855 C 78.28 29.61 7.29 C.3 50 C450 0
5856 H 76.75 28.68 8.02 H 50 C450 0
5857 H 78.88 29.46 8.02 H 50 C450 0
5858 H 77.86 30.45 7.39 H 50 C450 0
5859 C1 79.08 29.59 5.97 C.3 50 C450 0
5860 O2 79.29 30.64 5.36 O.3 50 C450 0
5861 O3 79.56 28.41 5.48 O.3 50 C450 0
5862 C 78.01 27.22 7.29 C.3 50 C450 0
5863 H 77.35 26.54 7.27 H 50 C450 0
5864 H 78.57 27.14 6.53 H 50 C450 0
5865 H 78.52 27.14 8.08 H 50 C450 0
5866 C 74.25 28.35 4.25 C.3 50 C450 0
5867 C 75.22 27.34 4.34 C.3 50 C450 0
5868 H 73.68 28.18 3.51 H 50 C450 0
5869 H 75.81 27.4 3.6 H 50 C450 0
5870 H 74.79 26.49 4.33 H 50 C450 0
5871 C1 76.01 27.5 5.65 C.3 50 C450 0
5872 O2 76.22 26.53 6.37 O.3 50 C450 0
5873 O3 76.49 28.73 6 O.3 50 C450 0
5874 C 74.94 29.71 4.08 C.3 50 C450 0
5875 H 74.28 30.39 4.02 H 50 C450 0
5876 H 75.5 29.88 4.82 H 50 C450 0
5877 H 75.46 29.7 3.28 H 50 C450 0
5878 C 71.18 28.93 7.22 C.3 50 C450 0
5879 C 72.15 29.92 7.02 C.3 50 C450 0
5880 H 70.61 29.18 7.94 H 50 C450 0
5881 H 72.74 29.94 7.76 H 50 C450 0
5882 H 71.73 30.77 6.93 H 50 C450 0
5883 C1 72.95 29.61 5.74 C.3 50 C450 0
5884 O2 73.15 30.5 4.91 O.3 50 C450 0
5885 O3 73.42 28.36 5.52 O.3 50 C450 0
5886 C 71.87 27.59 7.54 C.3 50 C450 0
5887 H 71.21 26.92 7.68 H 50 C450 0
5888 H 72.44 27.35 6.82 H 50 C450 0
5889 H 72.39 27.69 8.33 H 50 C450 0
5890 C 68.11 28.02 4.34 C.3 50 C450 0
5891 C 69.08 27.06 4.64 C.3 50 C450 0
5892 H 67.55 27.69 3.65 H 50 C450 0
5893 H 69.67 26.96 3.9 H 50 C450 0
5894 H 68.66 26.23 4.82 H 50 C450 0
5895 C1 69.88 27.51 5.88 C.3 50 C450 0
5896 O2 70.09 26.72 6.8 O.3 50 C450 0
5897 O3 70.36 28.78 5.96 O.3 50 C450 0
5898 C 68.8 29.31 3.86 C.3 50 C450 0
5899 H 68.14 29.97 3.66 H 50 C450 0
5900 H 69.37 29.64 4.55 H 50 C450 0
5901 H 69.32 29.13 3.09 H 50 C450 0
5902 C 65.04 29.24 7.1 C.3 50 C450 0
5903 C 66.01 30.17 6.69 C.3 50 C450 0
5904 H 64.48 29.65 7.75 H 50 C450 0
5905 H 66.6 30.35 7.41 H 50 C450 0
5906 H 65.59 30.97 6.42 H 50 C450 0
5907 C1 66.81 29.59 5.51 C.3 50 C450 0
5908 O2 67.02 30.27 4.51 O.3 50 C450 0
5909 O3 67.29 28.31 5.57 O.3 50 C450 0
5910 C 65.74 28.01 7.71 C.3 50 C450 0
5911 H 65.08 27.39 7.99 H 50 C450 0
5912 H 66.3 27.61 7.06 H 50 C450 0
5913 H 66.25 28.28 8.46 H 50 C450 0
5914 C 61.98 27.73 4.49 C.3 50 C450 0
5915 C 62.95 26.85 5 C.3 50 C450 0
5916 H 61.41 27.25 3.89 H 50 C450 0
5917 H 63.54 26.59 4.3 H 50 C450 0
5918 H 62.52 26.08 5.36 H 50 C450 0
5919 C1 63.74 27.56 6.11 C.3 50 C450 0
5920 O2 63.95 26.99 7.18 O.3 50 C450 0
5921 O3 64.22 28.82 5.91 O.3 50 C450 0
5922 C 62.67 28.88 3.74 C.3 50 C450 0
5923 H 62.01 29.47 3.4 H 50 C450 0
5924 H 63.23 29.35 4.34 H 50 C450 0
5925 H 63.19 28.53 3.03 H 50 C450 0
5926 C 58.91 29.52 6.91 C.3 50 C450 0
5927 C 59.88 30.33 6.31 C.3 50 C450 0
5928 H 58.34 30.06 7.46 H 50 C450 0
5929 H 60.47 30.67 6.98 H 50 C450 0
5930 H 59.46 31.06 5.87 H 50 C450 0
5931 C1 60.68 29.51 5.29 C.3 50 C450 0
5932 O2 60.88 29.96 4.16 O.3 50 C450 0
5933 O3 61.15 28.28 5.63 O.3 50 C450 0
5934 C 59.6 28.46 7.78 C.3 50 C450 0
5935 H 58.94 27.91 8.19 H 50 C450 0
5936 H 60.17 27.92 7.24 H 50 C450 0
5937 H 60.12 28.88 8.46 H 50 C450 0
5938 C 55.84 27.47 4.7 C.3 50 C450 0
5939 C 56.81 26.73 5.39 C.3 50 C450 0
5940 H 55.27 26.88 4.22 H 50 C450 0
5941 H 57.4 26.32 4.77 H 50 C450 0
5942 H 56.39 26.06 5.91 H 50 C450 0
5943 C1 57.61 27.66 6.32 C.3 50 C450 0
5944 O2 57.81 27.34 7.49 O.3 50 C450 0
5945 O3 58.09 28.85 5.84 O.3 50 C450 0
5946 C 56.53 28.43 3.72 C.3 50 C450 0
5947 H 55.87 28.94 3.26 H 50 C450 0
5948 H 57.1 29.02 4.2 H 50 C450 0
5949 H 57.05 27.94 3.1 H 50 C450 0
5950 C 52.77 29.76 6.67 C.3 50 C450 0
5951 C 53.74 30.42 5.91 C.3 50 C450 0
5952 H 52.21 30.4 7.09 H 50 C450 0
5953 H 54.33 30.89 6.48 H 50 C450 0
5954 H 53.32 31.03 5.32 H 50 C450 0
5955 C1 54.54 29.38 5.09 C.3 50 C450 0
5956 O2 54.75 29.57 3.89 O.3 50 C450 0
5957 O3 55.02 28.26 5.69 O.3 50 C450 0
5958 C 53.46 28.91 7.76 C.3 50 C450 0
5959 H 52.81 28.46 8.27 H 50 C450 0
5960 H 54.03 28.27 7.34 H 50 C450 0
5961 H 53.98 29.47 8.32 H 50 C450 0
5962 C 49.71 27.27 4.97 C.3 50 C450 0
5963 C 50.68 26.69 5.8 C.3 50 C450 0
5964 H 49.14 26.58 4.63 H 50 C450 0
5965 H 51.27 26.16 5.28 H 50 C450 0
5966 H 50.25 26.15 6.46 H 50 C450 0
5967 C1 51.47 27.81 6.5 C.3 50 C450 0
5968 O2 51.68 27.76 7.71 O.3 50 C450 0
5969 O3 51.95 28.86 5.78 O.3 50 C450 0
5970 C 50.4 27.99 3.8 C.3 50 C450 0
5971 H 49.74 28.38 3.23 H 50 C450 0
5972 H 50.96 28.67 4.14 H 50 C450 0
5973 H 50.91 27.37 3.3 H 50 C450 0
5974 C 46.64 29.93 6.39 C.3 50 C450 0
5975 C 47.61 30.41 5.5 C.3 50 C450 0
5976 H 46.07 30.65 6.65 H 50 C450 0
5977 H 48.2 30.99 5.95 H 50 C450 0
5978 H 47.19 30.87 4.79 H 50 C450 0
5979 C1 48.41 29.22 4.93 C.3 50 C450 0
5980 O2 48.61 29.14 3.72 O.3 50 C450 0
5981 O3 48.88 28.25 5.76 O.3 50 C450 0
5982 C 47.33 29.34 7.63 C.3 50 C450 0
5983 H 46.67 29.02 8.23 H 50 C450 0
5984 H 47.9 28.62 7.37 H 50 C450 0
5985 H 47.85 30.01 8.05 H 50 C450 0
5986 C 43.57 27.13 5.27 C.3 50 C450 0
5987 C 44.54 26.75 6.21 C.3 50 C450 0
5988 H 43.01 26.38 5.09 H 50 C450 0
5989 H 45.13 26.12 5.82 H 50 C450 0
5990 H 44.12 26.37 6.97 H 50 C450 0
5991 C1 45.34 28 6.65 C.3 50 C450 0
5992 O2 45.54 28.21 7.84 O.3 50 C450 0
5993 O3 45.82 28.86 5.71 O.3 50 C450 0
5994 C 44.26 27.58 3.97 C.3 50 C450 0
5995 H 43.6 27.83 3.34 H 50 C450 0
5996 H 44.83 28.32 4.15 H 50 C450 0
5997 H 44.78 26.86 3.62 H 50 C450 0
5998 C 40.5 30.04 6.07 C.3 50 C450 0
5999 C 41.47 30.3 5.1 C.3 50 C450 0
6000 H 39.94 30.79 6.17 H 50 C450 0
6001 H 42.06 30.98 5.41 H 50 C450 0
6002 H 41.05 30.6 4.3 H 50 C450 0
6003 C1 42.27 29.02 4.8 C.3 50 C450 0
6004 O2 42.48 28.68 3.64 O.3 50 C450 0
6005 O3 42.75 28.26 5.83 O.3 50 C450 0
6006 C 41.19 29.73 7.41 C.3 50 C450 0
6007 H 40.54 29.55 8.07 H 50 C450 0
6008 H 41.76 28.98 7.31 H 50 C450 0
6009 H 41.71 30.48 7.68 H 50 C450 0
6010 C 37.44 27.06 5.6 C.3 50 C450 0
6011 C 38.41 26.9 6.6 C.3 50 C450 0
6012 H 36.87 26.29 5.59 H 50 C450 0
6013 H 39 26.19 6.36 H 50 C450 0
6014 H 37.98 26.69 7.42 H 50 C450 0
6015 C1 39.2 28.21 6.75 C.3 50 C450 0
6016 O2 39.41 28.68 7.87 O.3 50 C450 0
6017 O3 39.68 28.85 5.65 O.3 50 C450 0
6018 C 38.13 27.21 4.23 C.3 50 C450 0
6019 H 37.47 27.32 3.56 H 50 C450 0
6020 H 38.69 27.97 4.25 H 50 C450 0
6021 H 38.64 26.43 4.05 H 50 C450 0
6022 C 34.37 30.07 5.74 C.3 50 C450 0
6023 C 35.34 30.12 4.73 C.3 50 C450 0
6024 H 33.8 30.83 5.67 H 50 C450 0
6025 H 35.93 30.84 4.89 H 50 C450 0
6026 H 34.91 30.23 3.89 H 50 C450 0
6027 C1 36.14 28.8 4.72 C.3 50 C450 0
6028 O2 36.34 28.21 3.66 O.3 50 C450 0
6029 O3 36.61 28.29 5.89 O.3 50 C450 0
6030 C 35.06 30.07 7.11 C.3 50 C450 0
6031 H 34.4 30.04 7.8 H 50 C450 0
6032 H 35.62 29.31 7.18 H 50 C450 0
6033 H 35.58 30.86 7.21 H 50 C450 0
6034 C 31.3 27.06 5.94 C.3 50 C450 0
6035 C 32.27 27.13 6.94 C.3 50 C450 0
6036 H 30.73 26.31 6.09 H 50 C450 0
6037 H 32.86 26.38 6.86 H 50 C450 0
6038 H 31.85 27.1 7.79 H 50 C450 0
6039 C1 33.07 28.44 6.8 C.3 50 C450 0
6040 O2 33.27 29.14 7.79 O.3 50 C450 0
6041 O3 33.54 28.81 5.59 O.3 50 C450 0
6042 C 31.99 26.91 4.57 C.3 50 C450 0
6043 H 31.33 26.86 3.88 H 50 C450 0
6044 H 32.56 27.66 4.41 H 50 C450 0
6045 H 32.51 26.11 4.56 H 50 C450 0
6046 C 28.23 30.03 5.41 C.3 50 C450 0
6047 C 29.2 29.86 4.41 C.3 50 C450 0
6048 H 27.67 30.76 5.17 H 50 C450 0
6049 H 29.79 30.6 4.41 H 50 C450 0
6050 H 28.78 29.78 3.57 H 50 C450 0
6051 C1 30 28.57 4.7 C.3 50 C450 0
6052 O2 30.21 27.76 3.79 O.3 50 C450 0
6053 O3 30.48 28.33 5.95 O.3 50 C450 0
6054 C 28.92 30.33 6.75 C.3 50 C450 0
6055 H 28.27 30.45 7.42 H 50 C450 0
6056 H 29.49 29.61 6.98 H 50 C450 0
6057 H 29.44 31.13 6.67 H 50 C450 0
6058 C 25.17 27.14 6.26 C.3 50 C450 0
6059 C 26.14 27.42 7.23 C.3 50 C450 0
6060 H 24.6 26.44 6.58 H 50 C450 0
6061 H 26.73 26.68 7.31 H 50 C450 0
6062 H 25.71 27.59 8.06 H 50 C450 0
6063 C1 26.93 28.67 6.8 C.3 50 C450 0
6064 O2 27.14 29.57 7.61 O.3 50 C450 0
6065 O3 27.41 28.77 5.54 O.3 50 C450 0
6066 C 25.86 26.69 4.96 C.3 50 C450 0
6067 H 25.2 26.5 4.3 H 50 C450 0
6068 H 26.42 27.38 4.65 H 50 C450 0
6069 H 26.37 25.91 5.13 H 50 C450 0
6070 C 22.1 29.92 5.09 C.3 50 C450 0
6071 C 23.07 29.53 4.16 C.3 50 C450 0
6072 H 21.53 30.58 4.7 H 50 C450 0
6073 H 23.66 30.25 3.99 H 50 C450 0
6074 H 22.64 29.27 3.35 H 50 C450 0
6075 C1 23.87 28.34 4.72 C.3 50 C450 0
6076 O2 24.07 27.35 4.02 O.3 50 C450 0
6077 O3 24.34 28.37 5.99 O.3 50 C450 0
6078 C 22.79 30.51 6.34 C.3 50 C450 0
6079 H 22.13 30.78 6.97 H 50 C450 0
6080 H 23.35 29.85 6.72 H 50 C450 0
6081 H 23.31 31.27 6.08 H 50 C450 0
6082 C 19.03 27.28 6.56 C.3 50 C450 0
6083 C 20 27.78 7.44 C.3 50 C450 0
6084 H 18.46 26.68 7.02 H 50 C450 0
6085 H 20.59 27.07 7.69 H 50 C450 0
6086 H 19.58 28.12 8.22 H 50 C450 0
6087 C1 20.8 28.9 6.75 C.3 50 C450 0
6088 O2 21 29.96 7.35 O.3 50 C450 0
6089 O3 21.27 28.72 5.49 O.3 50 C450 0
6090 C 19.72 26.56 5.39 C.3 50 C450 0
6091 H 19.06 26.23 4.79 H 50 C450 0
6092 H 20.29 27.17 4.93 H 50 C450 0
6093 H 20.24 25.84 5.73 H 50 C450 0
6094 C 15.96 29.74 4.81 C.3 50 C450 0
6095 C 16.93 29.16 3.99 C.3 50 C450 0
6096 H 15.4 30.3 4.29 H 50 C450 0
6097 H 17.52 29.83 3.67 H 50 C450 0
6098 H 16.51 28.73 3.25 H 50 C450 0
6099 C1 17.73 28.12 4.8 C.3 50 C450 0
6100 O2 17.94 27 4.33 O.3 50 C450 0
6101 O3 18.21 28.43 6.03 O.3 50 C450 0
6102 C 16.65 30.59 5.89 C.3 50 C450 0
6103 H 16 30.99 6.45 H 50 C450 0
6104 H 17.22 30.04 6.42 H 50 C450 0
6105 H 17.17 31.27 5.48 H 50 C450 0
6106 C 12.89 27.49 6.82 C.3 50 C450 0
6107 C 13.87 28.17 7.58 C.3 50 C450 0
6108 H 12.33 27 7.4 H 50 C450 0
6109 H 14.45 27.54 7.97 H 50 C450 0
6110 H 13.44 28.67 8.26 H 50 C450 0
6111 C1 14.66 29.11 6.66 C.3 50 C450 0
6112 O2 14.87 30.28 7 O.3 50 C450 0
6113 O3 15.14 28.66 5.47 O.3 50 C450 0
6114 C 13.59 26.53 5.84 C.3 50 C450 0
6115 H 12.93 26.07 5.33 H 50 C450 0
6116 H 14.15 27.02 5.26 H 50 C450 0
6117 H 14.1 25.9 6.33 H 50 C450 0
6118 C 9.83 29.51 4.57 C.3 50 C450 0
6119 C 10.8 28.75 3.9 C.3 50 C450 0
6120 H 9.26 29.93 3.94 H 50 C450 0
6121 H 11.39 29.34 3.44 H 50 C450 0
6122 H 10.37 28.17 3.28 H 50 C450 0
6123 C1 11.59 27.92 4.92 C.3 50 C450 0
6124 O2 11.8 26.72 4.7 O.3 50 C450 0
6125 O3 12.07 28.5 6.05 O.3 50 C450 0
6126 C 10.52 30.57 5.44 C.3 50 C450 0
6127 H 9.86 31.08 5.9 H 50 C450 0
6128 H 11.08 30.15 6.08 H 50 C450 0
6129 H 11.04 31.15 4.89 H 50 C450 0
6130 C 6.76 27.76 7.03 C.3 50 C450 0
6131 C 7.73 28.58 7.62 C.3 50 C450 0
6132 H 6.19 27.4 7.71 H 50 C450 0
6133 H 8.32 28.05 8.14 H 50 C450 0
6134 H 7.31 29.22 8.17 H 50 C450 0
6135 C1 8.53 29.3 6.51 C.3 50 C450 0
6136 O2 8.73 30.51 6.59 O.3 50 C450 0
6137 O3 9 28.6 5.45 O.3 50 C450 0
6138 C 7.45 26.6 6.28 C.3 50 C450 0
6139 H 6.79 26.04 5.89 H 50 C450 0
6140 H 8.02 26.95 5.61 H 50 C450 0
6141 H 7.97 26.09 6.9 H 50 C450 0
6142 H 3.17 28.79 5.06 H 51 C451 0
6143 C 3.69 29.22 4.39 C.3 51 C451 0
6144 C 4.66 28.34 3.9 C.3 51 C451 0
6145 H 3.13 29.5 3.68 H 51 C451 0
6146 H 5.25 28.81 3.33 H 51 C451 0
6147 H 4.24 27.64 3.42 H 51 C451 0
6148 C1 5.46 27.75 5.08 C.3 51 C451 0
6149 O2 5.67 26.54 5.14 O.3 51 C451 0
6150 O3 5.94 28.56 6.06 O.3 51 C451 0
6151 C 4.38 30.46 5.01 C.3 51 C451 0
6152 H 3.72 31.05 5.34 H 51 C451 0
6153 H 4.95 30.18 5.72 H 51 C451 0
6154 H 4.9 30.89 4.34 H 51 C451 0
6155 C 92.65 29.31 15.87 C.3 52 C452 0
6156 C 93.62 28.47 15.32 C.3 52 C452 0
6157 H 92.09 29.64 15.18 H 52 C452 0
6158 H 94.21 28.98 14.78 H 52 C452 0
6159 H 93.2 27.8 14.79 H 52 C452 0
6160 C1 94.42 27.79 16.45 C.3 52 C452 0
6161 O2 94.63 26.58 16.42 O.3 52 C452 0
6162 O3 94.9 28.53 17.48 O.3 52 C452 0
6163 H5 95.42 27.98 18.06 H 52 C452 0
6164 C 93.34 30.49 16.58 C.3 52 C452 0
6165 H 92.68 31.07 16.95 H 52 C452 0
6166 H 93.91 30.17 17.26 H 52 C452 0
6167 H 93.86 30.98 15.94 H 52 C452 0
6168 C 89.58 27.95 18.56 C.3 53 C453 0
6169 C 90.55 28.85 19.02 C.3 53 C453 0
6170 H 89.02 27.7 19.28 H 53 C453 0
6171 H 91.15 28.4 19.62 H 53 C453 0
6172 H 90.13 29.57 19.47 H 53 C453 0
6173 C1 91.35 29.39 17.82 C.3 53 C453 0
6174 O2 91.56 30.6 17.72 O.3 53 C453 0
6175 O3 91.83 28.54 16.88 O.3 53 C453 0
6176 C 90.28 26.69 18 C.3 53 C453 0
6177 H 89.62 26.08 17.69 H 53 C453 0
6178 H 90.84 26.94 17.28 H 53 C453 0
6179 H 90.79 26.28 18.68 H 53 C453 0
6180 C 86.52 29.01 15.74 C.3 53 C453 0
6181 C 87.49 28.06 15.38 C.3 53 C453 0
6182 H 85.95 29.17 14.99 H 53 C453 0
6183 H 88.08 28.44 14.74 H 53 C453 0
6184 H 87.06 27.3 15.01 H 53 C453 0
6185 C1 88.28 27.65 16.64 C.3 53 C453 0
6186 O2 88.49 26.46 16.87 O.3 53 C453 0
6187 O3 88.76 28.6 17.48 O.3 53 C453 0
6188 C 87.21 30.32 16.16 C.3 53 C453 0
6189 H 86.55 30.96 16.4 H 53 C453 0
6190 H 87.77 30.15 16.91 H 53 C453 0
6191 H 87.73 30.65 15.44 H 53 C453 0
6192 C 83.45 28.27 18.66 C.3 53 C453 0
6193 C 84.42 29.24 18.91 C.3 53 C453 0
6194 H 82.88 28.18 19.42 H 53 C453 0
6195 H 85.01 28.94 19.59 H 53 C453 0
6196 H 84 30.05 19.2 H 53 C453 0
6197 C1 85.22 29.52 17.62 C.3 53 C453 0
6198 O2 85.42 30.67 17.26 O.3 53 C453 0
6199 O3 85.69 28.48 16.89 O.3 53 C453 0
6200 C 84.14 26.92 18.39 C.3 53 C453 0
6201 H 83.48 26.25 18.22 H 53 C453 0
6202 H 84.71 27 17.63 H 53 C453 0
6203 H 84.66 26.67 19.14 H 53 C453 0
6204 C 80.38 28.68 15.67 C.3 53 C453 0
6205 C 81.35 27.68 15.54 C.3 53 C453 0
6206 H 79.82 28.68 14.91 H 53 C453 0
6207 H 81.94 27.91 14.83 H 53 C453 0
6208 H 80.93 26.85 15.34 H 53 C453 0
6209 C1 82.15 27.55 16.85 C.3 53 C453 0
6210 O2 82.36 26.44 17.34 O.3 53 C453 0
6211 O3 82.63 28.67 17.46 O.3 53 C453 0
6212 C 81.07 30.05 15.8 C.3 53 C453 0
6213 H 80.41 30.73 15.9 H 53 C453 0
6214 H 81.64 30.05 16.56 H 53 C453 0
6215 H 81.59 30.22 15.02 H 53 C453 0
6216 C 77.31 28.6 18.69 C.3 53 C453 0
6217 C 78.28 29.61 18.72 C.3 53 C453 0
6218 H 76.75 28.68 19.45 H 53 C453 0
6219 H 78.88 29.46 19.45 H 53 C453 0
6220 H 77.86 30.45 18.82 H 53 C453 0
6221 C1 79.08 29.59 17.4 C.3 53 C453 0
6222 O2 79.29 30.64 16.79 O.3 53 C453 0
6223 O3 79.56 28.41 16.91 O.3 53 C453 0
6224 C 78.01 27.22 18.72 C.3 53 C453 0
6225 H 77.35 26.54 18.7 H 53 C453 0
6226 H 78.57 27.14 17.96 H 53 C453 0
6227 H 78.52 27.14 19.51 H 53 C453 0
6228 C 74.25 28.35 15.68 C.3 53 C453 0
6229 C 75.22 27.34 15.77 C.3 53 C453 0
6230 H 73.68 28.18 14.94 H 53 C453 0
6231 H 75.81 27.4 15.03 H 53 C453 0
6232 H 74.79 26.49 15.76 H 53 C453 0
6233 C1 76.01 27.5 17.08 C.3 53 C453 0
6234 O2 76.22 26.53 17.8 O.3 53 C453 0
6235 O3 76.49 28.73 17.43 O.3 53 C453 0
6236 C 74.94 29.71 15.51 C.3 53 C453 0
6237 H 74.28 30.39 15.45 H 53 C453 0
6238 H 75.5 29.88 16.25 H 53 C453 0
6239 H 75.46 29.7 14.71 H 53 C453 0
6240 C 71.18 28.93 18.65 C.3 53 C453 0
6241 C 72.15 29.92 18.45 C.3 53 C453 0
6242 H 70.61 29.18 19.37 H 53 C453 0
6243 H 72.74 29.94 19.19 H 53 C453 0
6244 H 71.73 30.77 18.36 H 53 C453 0
6245 C1 72.95 29.61 17.17 C.3 53 C453 0
6246 O2 73.15 30.5 16.34 O.3 53 C453 0
6247 O3 73.42 28.36 16.95 O.3 53 C453 0
6248 C 71.87 27.59 18.97 C.3 53 C453 0
6249 H 71.21 26.92 19.11 H 53 C453 0
6250 H 72.44 27.35 18.25 H 53 C453 0
6251 H 72.39 27.69 19.76 H 53 C453 0
6252 C 68.11 28.02 15.77 C.3 53 C453 0
6253 C 69.08 27.06 16.07 C.3 53 C453 0
6254 H 67.55 27.69 15.08 H 53 C453 0
6255 H 69.67 26.96 15.33 H 53 C453 0
6256 H 68.66 26.23 16.25 H 53 C453 0
6257 C1 69.88 27.51 17.31 C.3 53 C453 0
6258 O2 70.09 26.72 18.23 O.3 53 C453 0
6259 O3 70.36 28.78 17.39 O.3 53 C453 0
6260 C 68.8 29.31 15.29 C.3 53 C453 0
6261 H 68.14 29.97 15.09 H 53 C453 0
6262 H 69.37 29.64 15.98 H 53 C453 0
6263 H 69.32 29.13 14.52 H 53 C453 0
6264 C 65.04 29.24 18.53 C.3 53 C453 0
6265 C 66.01 30.17 18.12 C.3 53 C453 0
6266 H 64.48 29.65 19.18 H 53 C453 0
6267 H 66.6 30.35 18.84 H 53 C453 0
6268 H 65.59 30.97 17.85 H 53 C453 0
6269 C1 66.81 29.59 16.94 C.3 53 C453 0
6270 O2 67.02 30.27 15.94 O.3 53 C453 0
6271 O3 67.29 28.31 17 O.3 53 C453 0
6272 C 65.74 28.01 19.14 C.3 53 C453 0
6273 H 65.08 27.39 19.42 H 53 C453 0
6274 H 66.3 27.61 18.49 H 53 C453 0
6275 H 66.25 28.28 19.89 H 53 C453 0
6276 C 61.98 27.73 15.92 C.3 53 C453 0
6277 C 62.95 26.85 16.43 C.3 53 C453 0
6278 H 61.41 27.25 15.32 H 53 C453 0
6279 H 63.54 26.59 15.73 H 53 C453 0
6280 H 62.52 26.08 16.79 H 53 C453 0
6281 C1 63.74 27.56 17.54 C.3 53 C453 0
6282 O2 63.95 26.99 18.61 O.3 53 C453 0
6283 O3 64.22 28.82 17.34 O.3 53 C453 0
6284 C 62.67 28.88 15.17 C.3 53 C453 0
6285 H 62.01 29.47 14.83 H 53 C453 0
6286 H 63.23 29.35 15.77 H 53 C453 0
6287 H 63.19 28.53 14.46 H 53 C453 0
6288 C 58.91 29.52 18.34 C.3 53 C453 0
6289 C 59.88 30.33 17.74 C.3 53 C453 0
6290 H 58.34 30.06 18.89 H 53 C453 0
6291 H 60.47 30.67 18.41 H 53 C453 0
6292 H 59.46 31.06 17.3 H 53 C453 0
6293 C1 60.68 29.51 16.72 C.3 53 C453 0
6294 O2 60.88 29.96 15.59 O.3 53 C453 0
6295 O3 61.15 28.28 17.06 O.3 53 C453 0
6296 C 59.6 28.46 19.21 C.3 53 C453 0
6297 H 58.94 27.91 19.62 H 53 C453 0
6298 H 60.17 27.92 18.67 H 53 C453 0
6299 H 60.12 28.88 19.89 H 53 C453 0
6300 C 55.84 27.47 16.13 C.3 53 C453 0
6301 C 56.81 26.73 16.82 C.3 53 C453 0
6302 H 55.27 26.88 15.65 H 53 C453 0
6303 H 57.4 26.32 16.2 H 53 C453 0
6304 H 56.39 26.06 17.34 H 53 C453 0
6305 C1 57.61 27.66 17.75 C.3 53 C453 0
6306 O2 57.81 27.34 18.92 O.3 53 C453 0
6307 O3 58.09 28.85 17.27 O.3 53 C453 0
6308 C 56.53 28.43 15.15 C.3 53 C453 0
6309 H 55.87 28.94 14.69 H 53 C453 0
6310 H 57.1 29.02 15.63 H 53 C453 0
6311 H 57.05 27.94 14.53 H 53 C453 0
6312 C 52.77 29.76 18.1 C.3 53 C453 0
6313 C 53.74 30.42 17.34 C.3 53 C453 0
6314 H 52.21 30.4 18.52 H 53 C453 0
6315 H 54.33 30.89 17.91 H 53 C453 0
6316 H 53.32 31.03 16.75 H 53 C453 0
6317 C1 54.54 29.38 16.52 C.3 53 C453 0
6318 O2 54.75 29.57 15.32 O.3 53 C453 0
6319 O3 55.02 28.26 17.12 O.3 53 C453 0
6320 C 53.46 28.91 19.19 C.3 53 C453 0
6321 H 52.81 28.46 19.7 H 53 C453 0
6322 H 54.03 28.27 18.77 H 53 C453 0
6323 H 53.98 29.47 19.75 H 53 C453 0
6324 C 49.71 27.27 16.4 C.3 53 C453 0
6325 C 50.68 26.69 17.23 C.3 53 C453 0
6326 H 49.14 26.58 16.06 H 53 C453 0
6327 H 51.27 26.16 16.71 H 53 C453 0
6328 H 50.25 26.15 17.89 H 53 C453 0
6329 C1 51.47 27.81 17.93 C.3 53 C453 0
6330 O2 51.68 27.76 19.14 O.3 53 C453 0
6331 O3 51.95 28.86 17.21 O.3 53 C453 0
6332 C 50.4 27.99 15.23 C.3 53 C453 0
6333 H 49.74 28.38 14.66 H 53 C453 0
6334 H 50.96 28.67 15.57 H 53 C453 0
6335 H 50.91 27.37 14.73 H 53 C453 0
6336 C 46.64 29.93 17.82 C.3 53 C453 0
6337 C 47.61 30.41 16.93 C.3 53 C453 0
6338 H 46.07 30.65 18.08 H 53 C453 0
6339 H 48.2 30.99 17.38 H 53 C453 0
6340 H 47.19 30.87 16.22 H 53 C453 0
6341 C1 48.41 29.22 16.36 C.3 53 C453 0
6342 O2 48.61 29.14 15.15 O.3 53 C453 0
6343 O3 48.88 28.25 17.19 O.3 53 C453 0
6344 C 47.33 29.34 19.06 C.3 53 C453 0
6345 H 46.67 29.02 19.66 H 53 C453 0
6346 H 47.9 28.62 18.8 H 53 C453 0
6347 H 47.85 30.01 19.48 H 53 C453 0
6348 C 43.57 27.13 16.7 C.3 53 C453 0
6349 C 44.54 26.75 17.64 C.3 53 C453 0
6350 H 43.01 26.38 16.52 H 53 C453 0
6351 H 45.13 26.12 17.25 H 53 C453 0
6352 H 44.12 26.37 18.4 H 53 C453 0
6353 C1 45.34 28 18.08 C.3 53 C453 0
6354 O2 45.54 28.21 19.27 O.3 53 C453 0
6355 O3 45.82 28.86 17.14 O.3 53 C453 0
6356 C 44.26 27.58 15.4 C.3 53 C453 0
6357 H 43.6 27.83 14.77 H 53 C453 0
6358 H 44.83 28.32 15.58 H 53 C453 0
6359 H 44.78 26.86 15.05 H 53 C453 0
6360 C 40.5 30.04 17.5 C.3 53 C453 0
6361 C 41.47 30.3 16.53 C.3 53 C453 0
6362 H 39.94 30.79 17.6 H 53 C453 0
6363 H 42.06 30.98 16.84 H 53 C453 0
6364 H 41.05 30.6 15.73 H 53 C453 0
6365 C1 42.27 29.02 16.23 C.3 53 C453 0
6366 O2 42.48 28.68 15.07 O.3 53 C453 0
6367 O3 42.75 28.26 17.26 O.3 53 C453 0
6368 C 41.19 29.73 18.84 C.3 53 C453 0
6369 H 40.54 29.55 19.5 H 53 C453 0
6370 H 41.76 28.98 18.74 H 53 C453 0
6371 H 41.71 30.48 19.11 H 53 C453 0
6372 C 37.44 27.06 17.03 C.3 53 C453 0
6373 C 38.41 26.9 18.03 C.3 53 C453 0
6374 H 36.87 26.29 17.02 H 53 C453 0
6375 H 39 26.19 17.79 H 53 C453 0
6376 H 37.98 26.69 18.85 H 53 C453 0
6377 C1 39.2 28.21 18.18 C.3 53 C453 0
6378 O2 39.41 28.68 19.3 O.3 53 C453 0
6379 O3 39.68 28.85 17.08 O.3 53 C453 0
6380 C 38.13 27.21 15.66 C.3 53 C453 0
6381 H 37.47 27.32 14.99 H 53 C453 0
6382 H 38.69 27.97 15.68 H 53 C453 0
6383 H 38.64 26.43 15.48 H 53 C453 0
6384 C 34.37 30.07 17.17 C.3 53 C453 0
6385 C 35.34 30.12 16.16 C.3 53 C453 0
6386 H 33.8 30.83 17.1 H 53 C453 0
6387 H 35.93 30.84 16.32 H 53 C453 0
6388 H 34.91 30.23 15.32 H 53 C453 0
6389 C1 36.14 28.8 16.15 C.3 53 C453 0
6390 O2 36.34 28.21 15.09 O.3 53 C453 0
6391 O3 36.61 28.29 17.32 O.3 53 C453 0
6392 C 35.06 30.07 18.54 C.3 53 C453 0
6393 H 34.4 30.04 19.23 H 53 C453 0
6394 H 35.62 29.31 18.61 H 53 C453 0
6395 H 35.58 30.86 18.64 H 53 C453 0
6396 C 31.3 27.06 17.37 C.3 53 C453 0
6397 C 32.27 27.13 18.37 C.3 53 C453 0
6398 H 30.73 26.31 17.52 H 53 C453 0
6399 H 32.86 26.38 18.29 H 53 C453 0
6400 H 31.85 27.1 19.22 H 53 C453 0
6401 C1 33.07 28.44 18.23 C.3 53 C453 0
6402 O2 33.27 29.14 19.22 O.3 53 C453 0
6403 O3 33.54 28.81 17.02 O.3 53 C453 0
6404 C 31.99 26.91 16 C.3 53 C453 0
6405 H 31.33 26.86 15.31 H 53 C453 0
6406 H 32.56 27.66 15.84 H 53 C453 0
6407 H 32.51 26.11 15.99 H 53 C453 0
6408 C 28.23 30.03 16.84 C.3 53 C453 0
6409 C 29.2 29.86 15.84 C.3 53 C453 0
6410 H 27.67 30.76 16.6 H 53 C453 0
6411 H 29.79 30.6 15.84 H 53 C453 0
6412 H 28.78 29.78 15 H 53 C453 0
6413 C1 30 28.57 16.13 C.3 53 C453 0
6414 O2 30.21 27.76 15.22 O.3 53 C453 0
6415 O3 30.48 28.33 17.38 O.3 53 C453 0
6416 C 28.92 30.33 18.18 C.3 53 C453 0
6417 H 28.27 30.45 18.85 H 53 C453 0
6418 H 29.49 29.61 18.41 H 53 C453 0
6419 H 29.44 31.13 18.1 H 53 C453 0
6420 C 25.17 27.14 17.69 C.3 53 C453 0
6421 C 26.14 27.42 18.66 C.3 53 C453 0
6422 H 24.6 26.44 18.01 H 53 C453 0
6423 H 26.73 26.68 18.74 H 53 C453 0
6424 H 25.71 27.59 19.49 H 53 C453 0
6425 C1 26.93 28.67 18.23 C.3 53 C453 0
6426 O2 27.14 29.57 19.04 O.3 53 C453 0
6427 O3 27.41 28.77 16.97 O.3 53 C453 0
6428 C 25.86 26.69 16.39 C.3 53 C453 0
6429 H 25.2 26.5 15.73 H 53 C453 0
6430 H 26.42 27.38 16.08 H 53 C453 0
6431 H 26.37 25.91 16.56 H 53 C453 0
6432 C 22.1 29.92 16.52 C.3 53 C453 0
6433 C 23.07 29.53 15.59 C.3 53 C453 0
6434 H 21.53 30.58 16.13 H 53 C453 0
6435 H 23.66 30.25 15.42 H 53 C453 0
6436 H 22.64 29.27 14.78 H 53 C453 0
6437 C1 23.87 28.34 16.15 C.3 53 C453 0
6438 O2 24.07 27.35 15.45 O.3 53 C453 0
6439 O3 24.34 28.37 17.42 O.3 53 C453 0
6440 C 22.79 30.51 17.77 C.3 53 C453 0
6441 H 22.13 30.78 18.4 H 53 C453 0
6442 H 23.35 29.85 18.15 H 53 C453 0
6443 H 23.31 31.27 17.51 H 53 C453 0
6444 C 19.03 27.28 17.99 C.3 53 C453 0
6445 C 20 27.78 18.87 C.3 53 C453 0
6446 H 18.46 26.68 18.45 H 53 C453 0
6447 H 20.59 27.07 19.12 H 53 C453 0
6448 H 19.58 28.12 19.65 H 53 C453 0
6449 C1 20.8 28.9 18.18 C.3 53 C453 0
6450 O2 21 29.96 18.78 O.3 53 C453 0
6451 O3 21.27 28.72 16.92 O.3 53 C453 0
6452 C 19.72 26.56 16.82 C.3 53 C453 0
6453 H 19.06 26.23 16.22 H 53 C453 0
6454 H 20.29 27.17 16.36 H 53 C453 0
6455 H 20.24 25.84 17.16 H 53 C453 0
6456 C 15.96 29.74 16.24 C.3 53 C453 0
6457 C 16.93 29.16 15.42 C.3 53 C453 0
6458 H 15.4 30.3 15.72 H 53 C453 0
6459 H 17.52 29.83 15.1 H 53 C453 0
6460 H 16.51 28.73 14.68 H 53 C453 0
6461 C1 17.73 28.12 16.23 C.3 53 C453 0
6462 O2 17.94 27 15.76 O.3 53 C453 0
6463 O3 18.21 28.43 17.46 O.3 53 C453 0
6464 C 16.65 30.59 17.32 C.3 53 C453 0
6465 H 16 30.99 17.88 H 53 C453 0
6466 H 17.22 30.04 17.85 H 53 C453 0
6467 H 17.17 31.27 16.91 H 53 C453 0
6468 C 12.89 27.49 18.25 C.3 53 C453 0
6469 C 13.87 28.17 19.01 C.3 53 C453 0
6470 H 12.33 27 18.83 H 53 C453 0
6471 H 14.45 27.54 19.4 H 53 C453 0
6472 H 13.44 28.67 19.69 H 53 C453 0
6473 C1 14.66 29.11 18.09 C.3 53 C453 0
6474 O2 14.87 30.28 18.43 O.3 53 C453 0
6475 O3 15.14 28.66 16.9 O.3 53 C453 0
6476 C 13.59 26.53 17.27 C.3 53 C453 0
6477 H 12.93 26.07 16.76 H 53 C453 0
6478 H 14.15 27.02 16.69 H 53 C453 0
6479 H 14.1 25.9 17.76 H 53 C453 0
6480 C 9.83 29.51 16 C.3 53 C453 0
6481 C 10.8 28.75 15.33 C.3 53 C453 0
6482 H 9.26 29.93 15.37 H 53 C453 0
6483 H 11.39 29.34 14.87 H 53 C453 0
6484 H 10.37 28.17 14.71 H 53 C453 0
6485 C1 11.59 27.92 16.35 C.3 53 C453 0
6486 O2 11.8 26.72 16.13 O.3 53 C453 0
6487 O3 12.07 28.5 17.48 O.3 53 C453 0
6488 C 10.52 30.57 16.87 C.3 53 C453 0
6489 H 9.86 31.08 17.33 H 53 C453 0
6490 H 11.08 30.15 17.51 H 53 C453 0
6491 H 11.04 31.15 16.32 H 53 C453 0
6492 C 6.76 27.76 18.46 C.3 53 C453 0
6493 C 7.73 28.58 19.05 C.3 53 C453 0
6494 H 6.19 27.4 19.14 H 53 C453 0
6495 H 8.32 28.05 19.57 H 53 C453 0
6496 H 7.31 29.22 19.6 H 53 C453 0
6497 C1 8.53 29.3 17.94 C.3 53 C453 0
6498 O2 8.73 30.51 18.02 O.3 53 C453 0
6499 O3 9 28.6 16.88 O.3 53 C453 0
6500 C 7.45 26.6 17.71 C.3 53 C453 0
6501 H 6.79 26.04 17.32 H 53 C453 0
6502 H 8.02 26.95 17.04 H 53 C453 0
6503 H 7.97 26.09 18.33 H 53 C453 0
6504 H 3.17 28.79 16.49 H 54 C454 0
6505 C 3.69 29.22 15.82 C.3 54 C454 0
6506 C 4.66 28.34 15.33 C.3 54 C454 0
6507 H 3.13 29.5 15.11 H 54 C454 0
6508 H 5.25 28.81 14.76 H 54 C454 0
6509 H 4.24 27.64 14.85 H 54 C454 0
6510 C1 5.46 27.75 16.51 C.3 54 C454 0
6511 O2 5.67 26.54 16.57 O.3 54 C454 0
6512 O3 5.94 28.56 17.49 O.3 54 C454 0
6513 C 4.38 30.46 16.44 C.3 54 C454 0
6514 H 3.72 31.05 16.77 H 54 C454 0
6515 H 4.95 30.18 17.15 H 54 C454 0
6516 H 4.9 30.89 15.77 H 54 C454 0
6517 C 92.65 29.31 27.3 C.3 55 C455 0
6518 C 93.62 28.47 26.75 C.3 55 C455 0
6519 H 92.09 29.64 26.61 H 55 C455 0
6520 H 94.21 28.98 26.21 H 55 C455 0
6521 H 93.2 27.8 26.22 H 55 C455 0
6522 C1 94.42 27.79 27.88 C.3 55 C455 0
6523 O2 94.63 26.58 27.85 O.3 55 C455 0
6524 O3 94.9 28.53 28.91 O.3 55 C455 0
6525 H5 95.42 27.98 29.49 H 55 C455 0
6526 C 93.34 30.49 28.01 C.3 55 C455 0
6527 H 92.68 31.07 28.38 H 55 C455 0
6528 H 93.91 30.17 28.69 H 55 C455 0
6529 H 93.86 30.98 27.37 H 55 C455 0
6530 C 89.58 27.95 29.99 C.3 56 C456 0
6531 C 90.55 28.85 30.45 C.3 56 C456 0
6532 H 89.02 27.7 30.71 H 56 C456 0
6533 H 91.15 28.4 31.05 H 56 C456 0
6534 H 90.13 29.57 30.9 H 56 C456 0
6535 C1 91.35 29.39 29.25 C.3 56 C456 0
6536 O2 91.56 30.6 29.15 O.3 56 C456 0
6537 O3 91.83 28.54 28.31 O.3 56 C456 0
6538 C 90.28 26.69 29.43 C.3 56 C456 0
6539 H 89.62 26.08 29.12 H 56 C456 0
6540 H 90.84 26.94 28.71 H 56 C456 0
6541 H 90.79 26.28 30.11 H 56 C456 0
6542 C 86.52 29.01 27.17 C.3 56 C456 0
6543 C 87.49 28.06 26.81 C.3 56 C456 0
6544 H 85.95 29.17 26.42 H 56 C456 0
6545 H 88.08 28.44 26.17 H 56 C456 0
6546 H 87.06 27.3 26.44 H 56 C456 0
6547 C1 88.28 27.65 28.07 C.3 56 C456 0
6548 O2 88.49 26.46 28.3 O.3 56 C456 0
6549 O3 88.76 28.6 28.91 O.3 56 C456 0
6550 C 87.21 30.32 27.59 C.3 56 C456 0
6551 H 86.55 30.96 27.83 H 56 C456 0
6552 H 87.77 30.15 28.34 H 56 C456 0
6553 H 87.73 30.65 26.87 H 56 C456 0
6554 C 83.45 28.27 30.09 C.3 56 C456 0
6555 C 84.42 29.24 30.34 C.3 56 C456 0
6556 H 82.88 28.18 30.85 H 56 C456 0
6557 H 85.01 28.94 31.02 H 56 C456 0
6558 H 84 30.05 30.63 H 56 C456 0
6559 C1 85.22 29.52 29.05 C.3 56 C456 0
6560 O2 85.42 30.67 28.69 O.3 56 C456 0
6561 O3 85.69 28.48 28.32 O.3 56 C456 0
6562 C 84.14 26.92 29.82 C.3 56 C456 0
6563 H 83.48 26.25 29.65 H 56 C456 0
6564 H 84.71 27 29.06 H 56 C456 0
6565 H 84.66 26.67 30.57 H 56 C456 0
6566 C 80.38 28.68 27.1 C.3 56 C456 0
6567 C 81.35 27.68 26.97 C.3 56 C456 0
6568 H 79.82 28.68 26.34 H 56 C456 0
6569 H 81.94 27.91 26.26 H 56 C456 0
6570 H 80.93 26.85 26.77 H 56 C456 0
6571 C1 82.15 27.55 28.28 C.3 56 C456 0
6572 O2 82.36 26.44 28.77 O.3 56 C456 0
6573 O3 82.63 28.67 28.89 O.3 56 C456 0
6574 C 81.07 30.05 27.23 C.3 56 C456 0
6575 H 80.41 30.73 27.33 H 56 C456 0
6576 H 81.64 30.05 27.99 H 56 C456 0
6577 H 81.59 30.22 26.45 H 56 C456 0
6578 C 77.31 28.6 30.12 C.3 56 C456 0
6579 C 78.28 29.61 30.15 C.3 56 C456 0
6580 H 76.75 28.68 30.88 H 56 C456 0
6581 H 78.88 29.46 30.88 H 56 C456 0
6582 H 77.86 30.45 30.25 H 56 C456 0
6583 C1 79.08 29.59 28.83 C.3 56 C456 0
6584 O2 79.29 30.64 28.22 O.3 56 C456 0
6585 O3 79.56 28.41 28.34 O.3 56 C456 0
6586 C 78.01 27.22 30.15 C.3 56 C456 0
6587 H 77.35 26.54 30.13 H 56 C456 0
6588 H 78.57 27.14 29.39 H 56 C456 0
6589 H 78.52 27.14 30.94 H 56 C456 0
6590 C 74.25 28.35 27.11 C.3 56 C456 0
6591 C 75.22 27.34 27.2 C.3 56 C456 0
6592 H 73.68 28.18 26.37 H 56 C456 0
6593 H 75.81 27.4 26.46 H 56 C456 0
6594 H 74.79 26.49 27.19 H 56 C456 0
6595 C1 76.01 27.5 28.51 C.3 56 C456 0
6596 O2 76.22 26.53 29.23 O.3 56 C456 0
6597 O3 76.49 28.73 28.86 O.3 56 C456 0
6598 C 74.94 29.71 26.94 C.3 56 C456 0
6599 H 74.28 30.39 26.88 H 56 C456 0
6600 H 75.5 29.88 27.68 H 56 C456 0
6601 H 75.46 29.7 26.14 H 56 C456 0
6602 C 71.18 28.93 30.08 C.3 56 C456 0
6603 C 72.15 29.92 29.88 C.3 56 C456 0
6604 H 70.61 29.18 30.8 H 56 C456 0
6605 H 72.74 29.94 30.62 H 56 C456 0
6606 H 71.73 30.77 29.79 H 56 C456 0
6607 C1 72.95 29.61 28.6 C.3 56 C456 0
6608 O2 73.15 30.5 27.77 O.3 56 C456 0
6609 O3 73.42 28.36 28.38 O.3 56 C456 0
6610 C 71.87 27.59 30.4 C.3 56 C456 0
6611 H 71.21 26.92 30.54 H 56 C456 0
6612 H 72.44 27.35 29.68 H 56 C456 0
6613 H 72.39 27.69 31.19 H 56 C456 0
6614 C 68.11 28.02 27.2 C.3 56 C456 0
6615 C 69.08 27.06 27.5 C.3 56 C456 0
6616 H 67.55 27.69 26.51 H 56 C456 0
6617 H 69.67 26.96 26.76 H 56 C456 0
6618 H 68.66 26.23 27.68 H 56 C456 0
6619 C1 69.88 27.51 28.74 C.3 56 C456 0
6620 O2 70.09 26.72 29.66 O.3 56 C456 0
6621 O3 70.36 28.78 28.82 O.3 56 C456 0
6622 C 68.8 29.31 26.72 C.3 56 C456 0
6623 H 68.14 29.97 26.52 H 56 C456 0
6624 H 69.37 29.64 27.41 H 56 C456 0
6625 H 69.32 29.13 25.95 H 56 C456 0
6626 C 65.04 29.24 29.96 C.3 56 C456 0
6627 C 66.01 30.17 29.55 C.3 56 C456 0
6628 H 64.48 29.65 30.61 H 56 C456 0
6629 H 66.6 30.35 30.27 H 56 C456 0
6630 H 65.59 30.97 29.28 H 56 C456 0
6631 C1 66.81 29.59 28.37 C.3 56 C456 0
6632 O2 67.02 30.27 27.37 O.3 56 C456 0
6633 O3 67.29 28.31 28.43 O.3 56 C456 0
6634 C 65.74 28.01 30.57 C.3 56 C456 0
6635 H 65.08 27.39 30.85 H 56 C456 0
6636 H 66.3 27.61 29.92 H 56 C456 0
6637 H 66.25 28.28 31.32 H 56 C456 0
6638 C 61.98 27.73 27.35 C.3 56 C456 0
6639 C 62.95 26.85 27.86 C.3 56 C456 0
6640 H 61.41 27.25 26.75 H 56 C456 0
6641 H 63.54 26.59 27.16 H 56 C456 0
6642 H 62.52 26.08 28.22 H 56 C456 0
6643 C1 63.74 27.56 28.97 C.3 56 C456 0
6644 O2 63.95 26.99 30.04 O.3 56 C456 0
6645 O3 64.22 28.82 28.77 O.3 56 C456 0
6646 C 62.67 28.88 26.6 C.3 56 C456 0
6647 H 62.01 29.47 26.26 H 56 C456 0
6648 H 63.23 29.35 27.2 H 56 C456 0
6649 H 63.19 28.53 25.89 H 56 C456 0
6650 C 58.91 29.52 29.77 C.3 56 C456 0
6651 C 59.88 30.33 29.17 C.3 56 C456 0
6652 H 58.34 30.06 30.32 H 56 C456 0
6653 H 60.47 30.67 29.84 H 56 C456 0
6654 H 59.46 31.06 28.73 H 56 C456 0
6655 C1 60.68 29.51 28.15 C.3 56 C456 0
6656 O2 60.88 29.96 27.02 O.3 56 C456 0
6657 O3 61.15 28.28 28.49 O.3 56 C456 0
6658 C 59.6 28.46 30.64 C.3 56 C456 0
6659 H 58.94 27.91 31.05 H 56 C456 0
6660 H 60.17 27.92 30.1 H 56 C456 0
6661 H 60.12 28.88 31.32 H 56 C456 0
6662 C 55.84 27.47 27.56 C.3 56 C456 0
6663 C 56.81 26.73 28.25 C.3 56 C456 0
6664 H 55.27 26.88 27.08 H 56 C456 0
6665 H 57.4 26.32 27.63 H 56 C456 0
6666 H 56.39 26.06 28.77 H 56 C456 0
6667 C1 57.61 27.66 29.18 C.3 56 C456 0
6668 O2 57.81 27.34 30.35 O.3 56 C456 0
6669 O3 58.09 28.85 28.7 O.3 56 C456 0
6670 C 56.53 28.43 26.58 C.3 56 C456 0
6671 H 55.87 28.94 26.12 H 56 C456 0
6672 H 57.1 29.02 27.06 H 56 C456 0
6673 H 57.05 27.94 25.96 H 56 C456 0
6674 C 52.77 29.76 29.53 C.3 56 C456 0
6675 C 53.74 30.42 28.77 C.3 56 C456 0
6676 H 52.21 30.4 29.95 H 56 C456 0
6677 H 54.33 30.89 29.34 H 56 C456 0
6678 H 53.32 31.03 28.18 H 56 C456 0
6679 C1 54.54 29.38 27.95 C.3 56 C456 0
6680 O2 54.75 29.57 26.75 O.3 56 C456 0
6681 O3 55.02 28.26 28.55 O.3 56 C456 0
6682 C 53.46 28.91 30.62 C.3 56 C456 0
6683 H 52.81 28.46 31.13 H 56 C456 0
6684 H 54.03 28.27 30.2 H 56 C456 0
6685 H 53.98 29.47 31.18 H 56 C456 0
6686 C 49.71 27.27 27.83 C.3 56 C456 0
6687 C 50.68 26.69 28.66 C.3 56 C456 0
6688 H 49.14 26.58 27.49 H 56 C456 0
6689 H 51.27 26.16 28.14 H 56 C456 0
6690 H 50.25 26.15 29.32 H 56 C456 0
6691 C1 51.47 27.81 29.36 C.3 56 C456 0
6692 O2 51.68 27.76 30.57 O.3 56 C456 0
6693 O3 51.95 28.86 28.64 O.3 56 C456 0
6694 C 50.4 27.99 26.66 C.3 56 C456 0
6695 H 49.74 28.38 26.09 H 56 C456 0
6696 H 50.96 28.67 27 H 56 C456 0
6697 H 50.91 27.37 26.16 H 56 C456 0
6698 C 46.64 29.93 29.25 C.3 56 C456 0
6699 C 47.61 30.41 28.36 C.3 56 C456 0
6700 H 46.07 30.65 29.51 H 56 C456 0
6701 H 48.2 30.99 28.81 H 56 C456 0
6702 H 47.19 30.87 27.65 H 56 C456 0
6703 C1 48.41 29.22 27.79 C.3 56 C456 0
6704 O2 48.61 29.14 26.58 O.3 56 C456 0
6705 O3 48.88 28.25 28.62 O.3 56 C456 0
6706 C 47.33 29.34 30.49 C.3 56 C456 0
6707 H 46.67 29.02 31.09 H 56 C456 0
6708 H 47.9 28.62 30.23 H 56 C456 0
6709 H 47.85 30.01 30.91 H 56 C456 0
6710 C 43.57 27.13 28.13 C.3 56 C456 0
6711 C 44.54 26.75 29.07 C.3 56 C456 0
6712 H 43.01 26.38 27.95 H 56 C456 0
6713 H 45.13 26.12 28.68 H 56 C456 0
6714 H 44.12 26.37 29.83 H 56 C456 0
6715 C1 45.34 28 29.51 C.3 56 C456 0
6716 O2 45.54 28.21 30.7 O.3 56 C456 0
6717 O3 45.82 28.86 28.57 O.3 56 C456 0
6718 C 44.26 27.58 26.83 C.3 56 C456 0
6719 H 43.6 27.83 26.2 H 56 C456 0
6720 H 44.83 28.32 27.01 H 56 C456 0
6721 H 44.78 26.86 26.48 H 56 C456 0
6722 C 40.5 30.04 28.93 C.3 56 C456 0
6723 C 41.47 30.3 27.96 C.3 56 C456 0
6724 H 39.94 30.79 29.03 H 56 C456 0
6725 H 42.06 30.98 28.27 H 56 C456 0
6726 H 41.05 30.6 27.16 H 56 C456 0
6727 C1 42.27 29.02 27.66 C.3 56 C456 0
6728 O2 42.48 28.68 26.5 O.3 56 C456 0
6729 O3 42.75 28.26 28.69 O.3 56 C456 0
6730 C 41.19 29.73 30.27 C.3 56 C456 0
6731 H 40.54 29.55 30.93 H 56 C456 0
6732 H 41.76 28.98 30.17 H 56 C456 0
6733 H 41.71 30.48 30.54 H 56 C456 0
6734 C 37.44 27.06 28.46 C.3 56 C456 0
6735 C 38.41 26.9 29.46 C.3 56 C456 0
6736 H 36.87 26.29 28.45 H 56 C456 0
6737 H 39 26.19 29.22 H 56 C456 0
6738 H 37.98 26.69 30.28 H 56 C456 0
6739 C1 39.2 28.21 29.61 C.3 56 C456 0
6740 O2 39.41 28.68 30.73 O.3 56 C456 0
6741 O3 39.68 28.85 28.51 O.3 56 C456 0
6742 C 38.13 27.21 27.09 C.3 56 C456 0
6743 H 37.47 27.32 26.42 H 56 C456 0
6744 H 38.69 27.97 27.11 H 56 C456 0
6745 H 38.64 26.43 26.91 H 56 C456 0
6746 C 34.37 30.07 28.6 C.3 56 C456 0
6747 C 35.34 30.12 27.59 C.3 56 C456 0
6748 H 33.8 30.83 28.53 H 56 C456 0
6749 H 35.93 30.84 27.75 H 56 C456 0
6750 H 34.91 30.23 26.75 H 56 C456 0
6751 C1 36.14 28.8 27.58 C.3 56 C456 0
6752 O2 36.34 28.21 26.52 O.3 56 C456 0
6753 O3 36.61 28.29 28.75 O.3 56 C456 0
6754 C 35.06 30.07 29.97 C.3 56 C456 0
6755 H 34.4 30.04 30.66 H 56 C456 0
6756 H 35.62 29.31 30.04 H 56 C456 0
6757 H 35.58 30.86 30.07 H 56 C456 0
6758 C 31.3 27.06 28.8 C.3 56 C456 0
6759 C 32.27 27.13 29.8 C.3 56 C456 0
6760 H 30.73 26.31 28.95 H 56 C456 0
6761 H 32.86 26.38 29.72 H 56 C456 0
6762 H 31.85 27.1 30.65 H 56 C456 0
6763 C1 33.07 28.44 29.66 C.3 56 C456 0
6764 O2 33.27 29.14 30.65 O.3 56 C456 0
6765 O3 33.54 28.81 28.45 O.3 56 C456 0
6766 C 31.99 26.91 27.43 C.3 56 C456 0
6767 H 31.33 26.86 26.74 H 56 C456 0
6768 H 32.56 27.66 27.27 H 56 C456 0
6769 H 32.51 26.11 27.42 H 56 C456 0
6770 C 28.23 30.03 28.27 C.3 56 C456 0
6771 C 29.2 29.86 27.27 C.3 56 C456 0
6772 H 27.67 30.76 28.03 H 56 C456 0
6773 H 29.79 30.6 27.27 H 56 C456 0
6774 H 28.78 29.78 26.43 H 56 C456 0
6775 C1 30 28.57 27.56 C.3 56 C456 0
6776 O2 30.21 27.76 26.65 O.3 56 C456 0
6777 O3 30.48 28.33 28.81 O.3 56 C456 0
6778 C 28.92 30.33 29.61 C.3 56 C456 0
6779 H 28.27 30.45 30.28 H 56 C456 0
6780 H 29.49 29.61 29.84 H 56 C456 0
6781 H 29.44 31.13 29.53 H 56 C456 0
6782 C 25.17 27.14 29.12 C.3 56 C456 0
6783 C 26.14 27.42 30.09 C.3 56 C456 0
6784 H 24.6 26.44 29.44 H 56 C456 0
6785 H 26.73 26.68 30.17 H 56 C456 0
6786 H 25.71 27.59 30.92 H 56 C456 0
6787 C1 26.93 28.67 29.66 C.3 56 C456 0
6788 O2 27.14 29.57 30.47 O.3 56 C456 0
6789 O3 27.41 28.77 28.4 O.3 56 C456 0
6790 C 25.86 26.69 27.82 C.3 56 C456 0
6791 H 25.2 26.5 27.16 H 56 C456 0
6792 H 26.42 27.38 27.51 H 56 C456 0
6793 H 26.37 25.91 27.99 H 56 C456 0
6794 C 22.1 29.92 27.95 C.3 56 C456 0
6795 C 23.07 29.53 27.02 C.3 56 C456 0
6796 H 21.53 30.58 27.56 H 56 C456 0
6797 H 23.66 30.25 26.85 H 56 C456 0
6798 H 22.64 29.27 26.21 H 56 C456 0
6799 C1 23.87 28.34 27.58 C.3 56 C456 0
6800 O2 24.07 27.35 26.88 O.3 56 C456 0
6801 O3 24.34 28.37 28.85 O.3 56 C456 0
6802 C 22.79 30.51 29.2 C.3 56 C456 0
6803 H 22.13 30.78 29.83 H 56 C456 0
6804 H 23.35 29.85 29.58 H 56 C456 0
6805 H 23.31 31.27 28.94 H 56 C456 0
6806 C 19.03 27.28 29.42 C.3 56 C456 0
6807 C 20 27.78 30.3 C.3 56 C456 0
6808 H 18.46 26.68 29.88 H 56 C456 0
6809 H 20.59 27.07 30.55 H 56 C456 0
6810 H 19.58 28.12 31.08 H 56 C456 0
6811 C1 20.8 28.9 29.61 C.3 56 C456 0
6812 O2 21 29.96 30.21 O.3 56 C456 0
6813 O3 21.27 28.72 28.35 O.3 56 C456 0
6814 C 19.72 26.56 28.25 C.3 56 C456 0
6815 H 19.06 26.23 27.65 H 56 C456 0
6816 H 20.29 27.17 27.79 H 56 C456 0
6817 H 20.24 25.84 28.59 H 56 C456 0
6818 C 15.96 29.74 27.67 C.3 56 C456 0
6819 C 16.93 29.16 26.85 C.3 56 C456 0
6820 H 15.4 30.3 27.15 H 56 C456 0
6821 H 17.52 29.83 26.53 H 56 C456 0
6822 H 16.51 28.73 26.11 H 56 C456 0
6823 C1 17.73 28.12 27.66 C.3 56 C456 0
6824 O2 17.94 27 27.19 O.3 56 C456 0
6825 O3 18.21 28.43 28.89 O.3 56 C456 0
6826 C 16.65 30.59 28.75 C.3 56 C456 0
6827 H 16 30.99 29.31 H 56 C456 0
6828 H 17.22 30.04 29.28 H 56 C456 0
6829 H 17.17 31.27 28.34 H 56 C456 0
6830 C 12.89 27.49 29.68 C.3 56 C456 0
6831 C 13.87 28.17 30.44 C.3 56 C456 0
6832 H 12.33 27 30.26 H 56 C456 0
6833 H 14.45 27.54 30.83 H 56 C456 0
6834 H 13.44 28.67 31.12 H 56 C456 0
6835 C1 14.66 29.11 29.52 C.3 56 C456 0
6836 O2 14.87 30.28 29.86 O.3 56 C456 0
6837 O3 15.14 28.66 28.33 O.3 56 C456 0
6838 C 13.59 26.53 28.7 C.3 56 C456 0
6839 H 12.93 26.07 28.19 H 56 C456 0
6840 H 14.15 27.02 28.12 H 56 C456 0
6841 H 14.1 25.9 29.19 H 56 C456 0
6842 C 9.83 29.51 27.43 C.3 56 C456 0
6843 C 10.8 28.75 26.76 C.3 56 C456 0
6844 H 9.26 29.93 26.8 H 56 C456 0
6845 H 11.39 29.34 26.3 H 56 C456 0
6846 H 10.37 28.17 26.14 H 56 C456 0
6847 C1 11.59 27.92 27.78 C.3 56 C456 0
6848 O2 11.8 26.72 27.56 O.3 56 C456 0
6849 O3 12.07 28.5 28.91 O.3 56 C456 0
6850 C 10.52 30.57 28.3 C.3 56 C456 0
6851 H 9.86 31.08 28.76 H 56 C456 0
6852 H 11.08 30.15 28.94 H 56 C456 0
6853 H 11.04 31.15 27.75 H 56 C456 0
6854 C 6.76 27.76 29.89 C.3 56 C456 0
6855 C 7.73 28.58 30.48 C.3 56 C456 0
6856 H 6.19 27.4 30.57 H 56 C456 0
6857 H 8.32 28.05 31 H 56 C456 0
6858 H 7.31 29.22 31.03 H 56 C456 0
6859 C1 8.53 29.3 29.37 C.3 56 C456 0
6860 O2 8.73 30.51 29.45 O.3 56 C456 0
6861 O3 9 28.6 28.31 O.3 56 C456 0
6862 C 7.45 26.6 29.14 C.3 56 C456 0
6863 H 6.79 26.04 28.75 H 56 C456 0
6864 H 8.02 26.95 28.47 H 56 C456 0
6865 H 7.97 26.09 29.76 H 56 C456 0
6866 H 3.17 28.79 27.92 H 57 C457 0
6867 C 3.69 29.22 27.25 C.3 57 C457 0
6868 C 4.66 28.34 26.76 C.3 57 C457 0
6869 H 3.13 29.5 26.54 H 57 C457 0
6870 H 5.25 28.81 26.19 H 57 C457 0
6871 H 4.24 27.64 26.28 H 57 C457 0
6872 C1 5.46 27.75 27.94 C.3 57 C457 0
6873 O2 5.67 26.54 28 O.3 57 C457 0
6874 O3 5.94 28.56 28.92 O.3 57 C457 0
6875 C 4.38 30.46 27.87 C.3 57 C457 0
6876 H 3.72 31.05 28.2 H 57 C457 0
6877 H 4.95 30.18 28.58 H 57 C457 0
6878 H 4.9 30.89 27.2 H 57 C457 0
6879 C 92.65 29.31 38.73 C.3 58 C458 0
6880 C 93.62 28.47 38.18 C.3 58 C458 0
6881 H 92.09 29.64 38.04 H 58 C458 0
6882 H 94.21 28.98 37.64 H 58 C458 0
6883 H 93.2 27.8 37.65 H 58 C458 0
6884 C1 94.42 27.79 39.31 C.3 58 C458 0
6885 O2 94.63 26.58 39.28 O.3 58 C458 0
6886 O3 94.9 28.53 40.34 O.3 58 C458 0
6887 H5 95.42 27.98 40.92 H 58 C458 0
6888 C 93.34 30.49 39.44 C.3 58 C458 0
6889 H 92.68 31.07 39.81 H 58 C458 0
6890 H 93.91 30.17 40.12 H 58 C458 0
6891 H 93.86 30.98 38.8 H 58 C458 0
6892 C 89.58 27.95 41.42 C.3 59 C459 0
6893 C 90.55 28.85 41.88 C.3 59 C459 0
6894 H 89.02 27.7 42.14 H 59 C459 0
6895 H 91.15 28.4 42.48 H 59 C459 0
6896 H 90.13 29.57 42.33 H 59 C459 0
6897 C1 91.35 29.39 40.68 C.3 59 C459 0
6898 O2 91.56 30.6 40.58 O.3 59 C459 0
6899 O3 91.83 28.54 39.74 O.3 59 C459 0
6900 C 90.28 26.69 40.86 C.3 59 C459 0
6901 H 89.62 26.08 40.55 H 59 C459 0
6902 H 90.84 26.94 40.14 H 59 C459 0
6903 H 90.79 26.28 41.54 H 59 C459 0
6904 C 86.52 29.01 38.6 C.3 59 C459 0
6905 C 87.49 28.06 38.24 C.3 59 C459 0
6906 H 85.95 29.17 37.85 H 59 C459 0
6907 H 88.08 28.44 37.6 H 59 C459 0
6908 H 87.06 27.3 37.87 H 59 C459 0
6909 C1 88.28 27.65 39.5 C.3 59 C459 0
6910 O2 88.49 26.46 39.73 O.3 59 C459 0
6911 O3 88.76 28.6 40.34 O.3 59 C459 0
6912 C 87.21 30.32 39.02 C.3 59 C459 0
6913 H 86.55 30.96 39.26 H 59 C459 0
6914 H 87.77 30.15 39.77 H 59 C459 0
6915 H 87.73 30.65 38.3 H 59 C459 0
6916 C 83.45 28.27 41.52 C.3 59 C459 0
6917 C 84.42 29.24 41.77 C.3 59 C459 0
6918 H 82.88 28.18 42.28 H 59 C459 0
6919 H 85.01 28.94 42.45 H 59 C459 0
6920 H 84 30.05 42.06 H 59 C459 0
6921 C1 85.22 29.52 40.48 C.3 59 C459 0
6922 O2 85.42 30.67 40.12 O.3 59 C459 0
6923 O3 85.69 28.48 39.75 O.3 59 C459 0
6924 C 84.14 26.92 41.25 C.3 59 C459 0
6925 H 83.48 26.25 41.08 H 59 C459 0
6926 H 84.71 27 40.49 H 59 C459 0
6927 H 84.66 26.67 42 H 59 C459 0
6928 C 80.38 28.68 38.53 C.3 59 C459 0
6929 C 81.35 27.68 38.4 C.3 59 C459 0
6930 H 79.82 28.68 37.77 H 59 C459 0
6931 H 81.94 27.91 37.69 H 59 C459 0
6932 H 80.93 26.85 38.2 H 59 C459 0
6933 C1 82.15 27.55 39.71 C.3 59 C459 0
6934 O2 82.36 26.44 40.2 O.3 59 C459 0
6935 O3 82.63 28.67 40.32 O.3 59 C459 0
6936 C 81.07 30.05 38.66 C.3 59 C459 0
6937 H 80.41 30.73 38.76 H 59 C459 0
6938 H 81.64 30.05 39.42 H 59 C459 0
6939 H 81.59 30.22 37.88 H 59 C459 0
6940 C 77.31 28.6 41.55 C.3 59 C459 0
6941 C 78.28 29.61 41.58 C.3 59 C459 0
6942 H 76.75 28.68 42.31 H 59 C459 0
6943 H 78.88 29.46 42.31 H 59 C459 0
6944 H 77.86 30.45 41.68 H 59 C459 0
6945 C1 79.08 29.59 40.26 C.3 59 C459 0
6946 O2 79.29 30.64 39.65 O.3 59 C459 0
6947 O3 79.56 28.41 39.77 O.3 59 C459 0
6948 C 78.01 27.22 41.58 C.3 59 C459 0
6949 H 77.35 26.54 41.56 H 59 C459 0
6950 H 78.57 27.14 40.82 H 59 C459 0
6951 H 78.52 27.14 42.37 H 59 C459 0
6952 C 74.25 28.35 38.54 C.3 59 C459 0
6953 C 75.22 27.34 38.63 C.3 59 C459 0
6954 H 73.68 28.18 37.8 H 59 C459 0
6955 H 75.81 27.4 37.89 H 59 C459 0
6956 H 74.79 26.49 38.62 H 59 C459 0
6957 C1 76.01 27.5 39.94 C.3 59 C459 0
6958 O2 76.22 26.53 40.66 O.3 59 C459 0
6959 O3 76.49 28.73 40.29 O.3 59 C459 0
6960 C 74.94 29.71 38.37 C.3 59 C459 0
6961 H 74.28 30.39 38.31 H 59 C459 0
6962 H 75.5 29.88 39.11 H 59 C459 0
6963 H 75.46 29.7 37.57 H 59 C459 0
6964 C 71.18 28.93 41.51 C.3 59 C459 0
6965 C 72.15 29.92 41.31 C.3 59 C459 0
6966 H 70.61 29.18 42.23 H 59 C459 0
6967 H 72.74 29.94 42.05 H 59 C459 0
6968 H 71.73 30.77 41.22 H 59 C459 0
6969 C1 72.95 29.61 40.03 C.3 59 C459 0
6970 O2 73.15 30.5 39.2 O.3 59 C459 0
6971 O3 73.42 28.36 39.81 O.3 59 C459 0
6972 C 71.87 27.59 41.83 C.3 59 C459 0
6973 H 71.21 26.92 41.97 H 59 C459 0
6974 H 72.44 27.35 41.11 H 59 C459 0
6975 H 72.39 27.69 42.62 H 59 C459 0
6976 C 68.11 28.02 38.63 C.3 59 C459 0
6977 C 69.08 27.06 38.93 C.3 59 C459 0
6978 H 67.55 27.69 37.94 H 59 C459 0
6979 H 69.67 26.96 38.19 H 59 C459 0
6980 H 68.66 26.23 39.11 H 59 C459 0
6981 C1 69.88 27.51 40.17 C.3 59 C459 0
6982 O2 70.09 26.72 41.09 O.3 59 C459 0
6983 O3 70.36 28.78 40.25 O.3 59 C459 0
6984 C 68.8 29.31 38.15 C.3 59 C459 0
6985 H 68.14 29.97 37.95 H 59 C459 0
6986 H 69.37 29.64 38.84 H 59 C459 0
6987 H 69.32 29.13 37.38 H 59 C459 0
6988 C 65.04 29.24 41.39 C.3 59 C459 0
6989 C 66.01 30.17 40.98 C.3 59 C459 0
6990 H 64.48 29.65 42.04 H 59 C459 0
6991 H 66.6 30.35 41.7 H 59 C459 0
6992 H 65.59 30.97 40.71 H 59 C459 0
6993 C1 66.81 29.59 39.8 C.3 59 C459 0
6994 O2 67.02 30.27 38.8 O.3 59 C459 0
6995 O3 67.29 28.31 39.86 O.3 59 C459 0
6996 C 65.74 28.01 42 C.3 59 C459 0
6997 H 65.08 27.39 42.28 H 59 C459 0
6998 H 66.3 27.61 41.35 H 59 C459 0
6999 H 66.25 28.28 42.75 H 59 C459 0
7000 C 61.98 27.73 38.78 C.3 59 C459 0
7001 C 62.95 26.85 39.29 C.3 59 C459 0
7002 H 61.41 27.25 38.18 H 59 C459 0
7003 H 63.54 26.59 38.59 H 59 C459 0
7004 H 62.52 26.08 39.65 H 59 C459 0
7005 C1 63.74 27.56 40.4 C.3 59 C459 0
7006 O2 63.95 26.99 41.47 O.3 59 C459 0
7007 O3 64.22 28.82 40.2 O.3 59 C459 0
7008 C 62.67 28.88 38.03 C.3 59 C459 0
7009 H 62.01 29.47 37.69 H 59 C459 0
7010 H 63.23 29.35 38.63 H 59 C459 0
7011 H 63.19 28.53 37.32 H 59 C459 0
7012 C 58.91 29.52 41.2 C.3 59 C459 0
7013 C 59.88 30.33 40.6 C.3 59 C459 0
7014 H 58.34 30.06 41.75 H 59 C459 0
7015 H 60.47 30.67 41.27 H 59 C459 0
7016 H 59.46 31.06 40.16 H 59 C459 0
7017 C1 60.68 29.51 39.58 C.3 59 C459 0
7018 O2 60.88 29.96 38.45 O.3 59 C459 0
7019 O3 61.15 28.28 39.92 O.3 59 C459 0
7020 C 59.6 28.46 42.07 C.3 59 C459 0
7021 H 58.94 27.91 42.48 H 59 C459 0
7022 H 60.17 27.92 41.53 H 59 C459 0
7023 H 60.12 28.88 42.75 H 59 C459 0
7024 C 55.84 27.47 38.99 C.3 59 C459 0
7025 C 56.81 26.73 39.68 C.3 59 C459 0
7026 H 55.27 26.88 38.51 H 59 C459 0
7027 H 57.4 26.32 39.06 H 59 C459 0
7028 H 56.39 26.06 40.2 H 59 C459 0
7029 C1 57.61 27.66 40.61 C.3 59 C459 0
7030 O2 57.81 27.34 41.78 O.3 59 C459 0
7031 O3 58.09 28.85 40.13 O.3 59 C459 0
7032 C 56.53 28.43 38.01 C.3 59 C459 0
7033 H 55.87 28.94 37.55 H 59 C459 0
7034 H 57.1 29.02 38.49 H 59 C459 0
7035 H 57.05 27.94 37.39 H 59 C459 0
7036 C 52.77 29.76 40.96 C.3 59 C459 0
7037 C 53.74 30.42 40.2 C.3 59 C459 0
7038 H 52.21 30.4 41.38 H 59 C459 0
7039 H 54.33 30.89 40.77 H 59 C459 0
7040 H 53.32 31.03 39.61 H 59 C459 0
7041 C1 54.54 29.38 39.38 C.3 59 C459 0
7042 O2 54.75 29.57 38.18 O.3 59 C459 0
7043 O3 55.02 28.26 39.98 O.3 59 C459 0
7044 C 53.46 28.91 42.05 C.3 59 C459 0
7045 H 52.81 28.46 42.56 H 59 C459 0
7046 H 54.03 28.27 41.63 H 59 C459 0
7047 H 53.98 29.47 42.61 H 59 C459 0
7048 C 49.71 27.27 39.26 C.3 59 C459 0
7049 C 50.68 26.69 40.09 C.3 59 C459 0
7050 H 49.14 26.58 38.92 H 59 C459 0
7051 H 51.27 26.16 39.57 H 59 C459 0
7052 H 50.25 26.15 40.75 H 59 C459 0
7053 C1 51.47 27.81 40.79 C.3 59 C459 0
7054 O2 51.68 27.76 42 O.3 59 C459 0
7055 O3 51.95 28.86 40.07 O.3 59 C459 0
7056 C 50.4 27.99 38.09 C.3 59 C459 0
7057 H 49.74 28.38 37.52 H 59 C459 0
7058 H 50.96 28.67 38.43 H 59 C459 0
7059 H 50.91 27.37 37.59 H 59 C459 0
7060 C 46.64 29.93 40.68 C.3 59 C459 0
7061 C 47.61 30.41 39.79 C.3 59 C459 0
7062 H 46.07 30.65 40.94 H 59 C459 0
7063 H 48.2 30.99 40.24 H 59 C459 0
7064 H 47.19 30.87 39.08 H 59 C459 0
7065 C1 48.41 29.22 39.22 C.3 59 C459 0
7066 O2 48.61 29.14 38.01 O.3 59 C459 0
7067 O3 48.88 28.25 40.05 O.3 59 C459 0
7068 C 47.33 29.34 41.92 C.3 59 C459 0
7069 H 46.67 29.02 42.52 H 59 C459 0
7070 H 47.9 28.62 41.66 H 59 C459 0
7071 H 47.85 30.01 42.34 H 59 C459 0
7072 C 43.57 27.13 39.56 C.3 59 C459 0
7073 C 44.54 26.75 40.5 C.3 59 C459 0
7074 H 43.01 26.38 39.38 H 59 C459 0
7075 H 45.13 26.12 40.11 H 59 C459 0
7076 H 44.12 26.37 41.26 H 59 C459 0
7077 C1 45.34 28 40.94 C.3 59 C459 0
7078 O2 45.54 28.21 42.13 O.3 59 C459 0
7079 O3 45.82 28.86 40 O.3 59 C459 0
7080 C 44.26 27.58 38.26 C.3 59 C459 0
7081 H 43.6 27.83 37.63 H 59 C459 0
7082 H 44.83 28.32 38.44 H 59 C459 0
7083 H 44.78 26.86 37.91 H 59 C459 0
7084 C 40.5 30.04 40.36 C.3 59 C459 0
7085 C 41.47 30.3 39.39 C.3 59 C459 0
7086 H 39.94 30.79 40.46 H 59 C459 0
7087 H 42.06 30.98 39.7 H 59 C459 0
7088 H 41.05 30.6 38.59 H 59 C459 0
7089 C1 42.27 29.02 39.09 C.3 59 C459 0
7090 O2 42.48 28.68 37.93 O.3 59 C459 0
7091 O3 42.75 28.26 40.12 O.3 59 C459 0
7092 C 41.19 29.73 41.7 C.3 59 C459 0
7093 H 40.54 29.55 42.36 H 59 C459 0
7094 H 41.76 28.98 41.6 H 59 C459 0
7095 H 41.71 30.48 41.97 H 59 C459 0
7096 C 37.44 27.06 39.89 C.3 59 C459 0
7097 C 38.41 26.9 40.89 C.3 59 C459 0
7098 H 36.87 26.29 39.88 H 59 C459 0
7099 H 39 26.19 40.65 H 59 C459 0
7100 H 37.98 26.69 41.71 H 59 C459 0
7101 C1 39.2 28.21 41.04 C.3 59 C459 0
7102 O2 39.41 28.68 42.16 O.3 59 C459 0
7103 O3 39.68 28.85 39.94 O.3 59 C459 0
7104 C 38.13 27.21 38.52 C.3 59 C459 0
7105 H 37.47 27.32 37.85 H 59 C459 0
7106 H 38.69 27.97 38.54 H 59 C459 0
7107 H 38.64 26.43 38.34 H 59 C459 0
7108 C 34.37 30.07 40.03 C.3 59 C459 0
7109 C 35.34 30.12 39.02 C.3 59 C459 0
7110 H 33.8 30.83 39.96 H 59 C459 0
7111 H 35.93 30.84 39.18 H 59 C459 0
7112 H 34.91 30.23 38.18 H 59 C459 0
7113 C1 36.14 28.8 39.01 C.3 59 C459 0
7114 O2 36.34 28.21 37.95 O.3 59 C459 0
7115 O3 36.61 28.29 40.18 O.3 59 C459 0
7116 C 35.06 30.07 41.4 C.3 59 C459 0
7117 H 34.4 30.04 42.09 H 59 C459 0
7118 H 35.62 29.31 41.47 H 59 C459 0
7119 H 35.58 30.86 41.5 H 59 C459 0
7120 C 31.3 27.06 40.23 C.3 59 C459 0
7121 C 32.27 27.13 41.23 C.3 59 C459 0
7122 H 30.73 26.31 40.38 H 59 C459 0
7123 H 32.86 26.38 41.15 H 59 C459 0
7124 H 31.85 27.1 42.08 H 59 C459 0
7125 C1 33.07 28.44 41.09 C.3 59 C459 0
7126 O2 33.27 29.14 42.08 O.3 59 C459 0
7127 O3 33.54 28.81 39.88 O.3 59 C459 0
7128 C 31.99 26.91 38.86 C.3 59 C459 0
7129 H 31.33 26.86 38.17 H 59 C459 0
7130 H 32.56 27.66 38.7 H 59 C459 0
7131 H 32.51 26.11 38.85 H 59 C459 0
7132 C 28.23 30.03 39.7 C.3 59 C459 0
7133 C 29.2 29.86 38.7 C.3 59 C459 0
7134 H 27.67 30.76 39.46 H 59 C459 0
7135 H 29.79 30.6 38.7 H 59 C459 0
7136 H 28.78 29.78 37.86 H 59 C459 0
7137 C1 30 28.57 38.99 C.3 59 C459 0
7138 O2 30.21 27.76 38.08 O.3 59 C459 0
7139 O3 30.48 28.33 40.24 O.3 59 C459 0
7140 C 28.92 30.33 41.04 C.3 59 C459 0
7141 H 28.27 30.45 41.71 H 59 C459 0
7142 H 29.49 29.61 41.27 H 59 C459 0
7143 H 29.44 31.13 40.96 H 59 C459 0
7144 C 25.17 27.14 40.55 C.3 59 C459 0
7145 C 26.14 27.42 41.52 C.3 59 C459 0
7146 H 24.6 26.44 40.87 H 59 C459 0
7147 H 26.73 26.68 41.6 H 59 C459 0
7148 H 25.71 27.59 42.35 H 59 C459 0
7149 C1 26.93 28.67 41.09 C.3 59 C459 0
7150 O2 27.14 29.57 41.9 O.3 59 C459 0
7151 O3 27.41 28.77 39.83 O.3 59 C459 0
7152 C 25.86 26.69 39.25 C.3 59 C459 0
7153 H 25.2 26.5 38.59 H 59 C459 0
7154 H 26.42 27.38 38.94 H 59 C459 0
7155 H 26.37 25.91 39.42 H 59 C459 0
7156 C 22.1 29.92 39.38 C.3 59 C459 0
7157 C 23.07 29.53 38.45 C.3 59 C459 0
7158 H 21.53 30.58 38.99 H 59 C459 0
7159 H 23.66 30.25 38.28 H 59 C459 0
7160 H 22.64 29.27 37.64 H 59 C459 0
7161 C1 23.87 28.34 39.01 C.3 59 C459 0
7162 O2 24.07 27.35 38.31 O.3 59 C459 0
7163 O3 24.34 28.37 40.28 O.3 59 C459 0
7164 C 22.79 30.51 40.63 C.3 59 C459 0
7165 H 22.13 30.78 41.26 H 59 C459 0
7166 H 23.35 29.85 41.01 H 59 C459 0
7167 H 23.31 31.27 40.37 H 59 C459 0
7168 C 19.03 27.28 40.85 C.3 59 C459 0
7169 C 20 27.78 41.73 C.3 59 C459 0
7170 H 18.46 26.68 41.31 H 59 C459 0
7171 H 20.59 27.07 41.98 H 59 C459 0
7172 H 19.58 28.12 42.51 H 59 C459 0
7173 C1 20.8 28.9 41.04 C.3 59 C459 0
7174 O2 21 29.96 41.64 O.3 59 C459 0
7175 O3 21.27 28.72 39.78 O.3 59 C459 0
7176 C 19.72 26.56 39.68 C.3 59 C459 0
7177 H 19.06 26.23 39.08 H 59 C459 0
7178 H 20.29 27.17 39.22 H 59 C459 0
7179 H 20.24 25.84 40.02 H 59 C459 0
7180 C 15.96 29.74 39.1 C.3 59 C459 0
7181 C 16.93 29.16 38.28 C.3 59 C459 0
7182 H 15.4 30.3 38.58 H 59 C459 0
7183 H 17.52 29.83 37.96 H 59 C459 0
7184 H 16.51 28.73 37.54 H 59 C459 0
7185 C1 17.73 28.12 39.09 C.3 59 C459 0
7186 O2 17.94 27 38.62 O.3 59 C459 0
7187 O3 18.21 28.43 40.32 O.3 59 C459 0
7188 C 16.65 30.59 40.18 C.3 59 C459 0
7189 H 16 30.99 40.74 H 59 C459 0
7190 H 17.22 30.04 40.71 H 59 C459 0
7191 H 17.17 31.27 39.77 H 59 C459 0
7192 C 12.89 27.49 41.11 C.3 59 C459 0
7193 C 13.87 28.17 41.87 C.3 59 C459 0
7194 H 12.33 27 41.69 H 59 C459 0
7195 H 14.45 27.54 42.26 H 59 C459 0
7196 H 13.44 28.67 42.55 H 59 C459 0
7197 C1 14.66 29.11 40.95 C.3 59 C459 0
7198 O2 14.87 30.28 41.29 O.3 59 C459 0
7199 O3 15.14 28.66 39.76 O.3 59 C459 0
7200 C 13.59 26.53 40.13 C.3 59 C459 0
7201 H 12.93 26.07 39.62 H 59 C459 0
7202 H 14.15 27.02 39.55 H 59 C459 0
7203 H 14.1 25.9 40.62 H 59 C459 0
7204 C 9.83 29.51 38.86 C.3 59 C459 0
7205 C 10.8 28.75 38.19 C.3 59 C459 0
7206 H 9.26 29.93 38.23 H 59 C459 0
7207 H 11.39 29.34 37.73 H 59 C459 0
7208 H 10.37 28.17 37.57 H 59 C459 0
7209 C1 11.59 27.92 39.21 C.3 59 C459 0
7210 O2 11.8 26.72 38.99 O.3 59 C459 0
7211 O3 12.07 28.5 40.34 O.3 59 C459 0
7212 C 10.52 30.57 39.73 C.3 59 C459 0
7213 H 9.86 31.08 40.19 H 59 C459 0
7214 H 11.08 30.15 40.37 H 59 C459 0
7215 H 11.04 31.15 39.18 H 59 C459 0
7216 C 6.76 27.76 41.32 C.3 59 C459 0
7217 C 7.73 28.58 41.91 C.3 59 C459 0
7218 H 6.19 27.4 42 H 59 C459 0
7219 H 8.32 28.05 42.43 H 59 C459 0
7220 H 7.31 29.22 42.46 H 59 C459 0
7221 C1 8.53 29.3 40.8 C.3 59 C459 0
7222 O2 8.73 30.51 40.88 O.3 59 C459 0
7223 O3 9 28.6 39.74 O.3 59 C459 0
7224 C 7.45 26.6 40.57 C.3 59 C459 0
7225 H 6.79 26.04 40.18 H 59 C459 0
7226 H 8.02 26.95 39.9 H 59 C459 0
7227 H 7.97 26.09 41.19 H 59 C459 0
7228 H 3.17 28.79 39.35 H 60 C460 0
7229 C 3.69 29.22 38.68 C.3 60 C460 0
7230 C 4.66 28.34 38.19 C.3 60 C460 0
7231 H 3.13 29.5 37.97 H 60 C460 0
7232 H 5.25 28.81 37.62 H 60 C460 0
7233 H 4.24 27.64 37.71 H 60 C460 0
7234 C1 5.46 27.75 39.37 C.3 60 C460 0
7235 O2 5.67 26.54 39.43 O.3 60 C460 0
7236 O3 5.94 28.56 40.35 O.3 60 C460 0
7237 C 4.38 30.46 39.3 C.3 60 C460 0
7238 H 3.72 31.05 39.63 H 60 C460 0
7239 H 4.95 30.18 40.01 H 60 C460 0
7240 H 4.9 30.89 38.63 H 60 C460 0
7241 C 92.65 29.31 50.17 C.3 61 C461 0
7242 C 93.62 28.47 49.62 C.3 61 C461 0
7243 H 92.09 29.64 49.48 H 61 C461 0
7244 H 94.21 28.98 49.08 H 61 C461 0
7245 H 93.2 27.8 49.09 H 61 C461 0
7246 C1 94.42 27.79 50.75 C.3 61 C461 0
7247 O2 94.63 26.58 50.72 O.3 61 C461 0
7248 O3 94.9 28.53 51.78 O.3 61 C461 0
7249 H5 95.42 27.98 52.36 H 61 C461 0
7250 C 93.34 30.49 50.88 C.3 61 C461 0
7251 H 92.68 31.07 51.25 H 61 C461 0
7252 H 93.91 30.17 51.56 H 61 C461 0
7253 H 93.86 30.98 50.24 H 61 C461 0
7254 C 89.58 27.95 52.86 C.3 62 C462 0
7255 C 90.55 28.85 53.32 C.3 62 C462 0
7256 H 89.02 27.7 53.58 H 62 C462 0
7257 H 91.15 28.4 53.92 H 62 C462 0
7258 H 90.13 29.57 53.77 H 62 C462 0
7259 C1 91.35 29.39 52.12 C.3 62 C462 0
7260 O2 91.56 30.6 52.02 O.3 62 C462 0
7261 O3 91.83 28.54 51.18 O.3 62 C462 0
7262 C 90.28 26.69 52.3 C.3 62 C462 0
7263 H 89.62 26.08 51.99 H 62 C462 0
7264 H 90.84 26.94 51.58 H 62 C462 0
7265 H 90.79 26.28 52.98 H 62 C462 0
7266 C 86.52 29.01 50.04 C.3 62 C462 0
7267 C 87.49 28.06 49.68 C.3 62 C462 0
7268 H 85.95 29.17 49.29 H 62 C462 0
7269 H 88.08 28.44 49.04 H 62 C462 0
7270 H 87.06 27.3 49.31 H 62 C462 0
7271 C1 88.28 27.65 50.94 C.3 62 C462 0
7272 O2 88.49 26.46 51.17 O.3 62 C462 0
7273 O3 88.76 28.6 51.78 O.3 62 C462 0
7274 C 87.21 30.32 50.46 C.3 62 C462 0
7275 H 86.55 30.96 50.7 H 62 C462 0
7276 H 87.77 30.15 51.21 H 62 C462 0
7277 H 87.73 30.65 49.74 H 62 C462 0
7278 C 83.45 28.27 52.96 C.3 62 C462 0
7279 C 84.42 29.24 53.21 C.3 62 C462 0
7280 H 82.88 28.18 53.72 H 62 C462 0
7281 H 85.01 28.94 53.89 H 62 C462 0
7282 H 84 30.05 53.5 H 62 C462 0
7283 C1 85.22 29.52 51.92 C.3 62 C462 0
7284 O2 85.42 30.67 51.56 O.3 62 C462 0
7285 O3 85.69 28.48 51.19 O.3 62 C462 0
7286 C 84.14 26.92 52.69 C.3 62 C462 0
7287 H 83.48 26.25 52.52 H 62 C462 0
7288 H 84.71 27 51.93 H 62 C462 0
7289 H 84.66 26.67 53.44 H 62 C462 0
7290 C 80.38 28.68 49.97 C.3 62 C462 0
7291 C 81.35 27.68 49.84 C.3 62 C462 0
7292 H 79.82 28.68 49.21 H 62 C462 0
7293 H 81.94 27.91 49.13 H 62 C462 0
7294 H 80.93 26.85 49.64 H 62 C462 0
7295 C1 82.15 27.55 51.15 C.3 62 C462 0
7296 O2 82.36 26.44 51.64 O.3 62 C462 0
7297 O3 82.63 28.67 51.76 O.3 62 C462 0
7298 C 81.07 30.05 50.1 C.3 62 C462 0
7299 H 80.41 30.73 50.2 H 62 C462 0
7300 H 81.64 30.05 50.86 H 62 C462 0
7301 H 81.59 30.22 49.32 H 62 C462 0
7302 C 77.31 28.6 52.99 C.3 62 C462 0
7303 C 78.28 29.61 53.02 C.3 62 C462 0
7304 H 76.75 28.68 53.75 H 62 C462 0
7305 H 78.88 29.46 53.75 H 62 C462 0
7306 H 77.86 30.45 53.12 H 62 C462 0
7307 C1 79.08 29.59 51.7 C.3 62 C462 0
7308 O2 79.29 30.64 51.09 O.3 62 C462 0
7309 O3 79.56 28.41 51.21 O.3 62 C462 0
7310 C 78.01 27.22 53.02 C.3 62 C462 0
7311 H 77.35 26.54 53 H 62 C462 0
7312 H 78.57 27.14 52.26 H 62 C462 0
7313 H 78.52 27.14 53.81 H 62 C462 0
7314 C 74.25 28.35 49.98 C.3 62 C462 0
7315 C 75.22 27.34 50.07 C.3 62 C462 0
7316 H 73.68 28.18 49.24 H 62 C462 0
7317 H 75.81 27.4 49.33 H 62 C462 0
7318 H 74.79 26.49 50.06 H 62 C462 0
7319 C1 76.01 27.5 51.38 C.3 62 C462 0
7320 O2 76.22 26.53 52.1 O.3 62 C462 0
7321 O3 76.49 28.73 51.73 O.3 62 C462 0
7322 C 74.94 29.71 49.81 C.3 62 C462 0
7323 H 74.28 30.39 49.75 H 62 C462 0
7324 H 75.5 29.88 50.55 H 62 C462 0
7325 H 75.46 29.7 49.01 H 62 C462 0
7326 C 71.18 28.93 52.95 C.3 62 C462 0
7327 C 72.15 29.92 52.75 C.3 62 C462 0
7328 H 70.61 29.18 53.67 H 62 C462 0
7329 H 72.74 29.94 53.49 H 62 C462 0
7330 H 71.73 30.77 52.66 H 62 C462 0
7331 C1 72.95 29.61 51.47 C.3 62 C462 0
7332 O2 73.15 30.5 50.64 O.3 62 C462 0
7333 O3 73.42 28.36 51.25 O.3 62 C462 0
7334 C 71.87 27.59 53.27 C.3 62 C462 0
7335 H 71.21 26.92 53.41 H 62 C462 0
7336 H 72.44 27.35 52.55 H 62 C462 0
7337 H 72.39 27.69 54.06 H 62 C462 0
7338 C 68.11 28.02 50.07 C.3 62 C462 0
7339 C 69.08 27.06 50.37 C.3 62 C462 0
7340 H 67.55 27.69 49.38 H 62 C462 0
7341 H 69.67 26.96 49.63 H 62 C462 0
7342 H 68.66 26.23 50.55 H 62 C462 0
7343 C1 69.88 27.51 51.61 C.3 62 C462 0
7344 O2 70.09 26.72 52.53 O.3 62 C462 0
7345 O3 70.36 28.78 51.69 O.3 62 C462 0
7346 C 68.8 29.31 49.59 C.3 62 C462 0
7347 H 68.14 29.97 49.39 H 62 C462 0
7348 H 69.37 29.64 50.28 H 62 C462 0
7349 H 69.32 29.13 48.82 H 62 C462 0
7350 C 65.04 29.24 52.83 C.3 62 C462 0
7351 C 66.01 30.17 52.42 C.3 62 C462 0
7352 H 64.48 29.65 53.48 H 62 C462 0
7353 H 66.6 30.35 53.14 H 62 C462 0
7354 H 65.59 30.97 52.15 H 62 C462 0
7355 C1 66.81 29.59 51.24 C.3 62 C462 0
7356 O2 67.02 30.27 50.24 O.3 62 C462 0
7357 O3 67.29 28.31 51.3 O.3 62 C462 0
7358 C 65.74 28.01 53.44 C.3 62 C462 0
7359 H 65.08 27.39 53.72 H 62 C462 0
7360 H 66.3 27.61 52.79 H 62 C462 0
7361 H 66.25 28.28 54.19 H 62 C462 0
7362 C 61.98 27.73 50.22 C.3 62 C462 0
7363 C 62.95 26.85 50.73 C.3 62 C462 0
7364 H 61.41 27.25 49.62 H 62 C462 0
7365 H 63.54 26.59 50.03 H 62 C462 0
7366 H 62.52 26.08 51.09 H 62 C462 0
7367 C1 63.74 27.56 51.84 C.3 62 C462 0
7368 O2 63.95 26.99 52.91 O.3 62 C462 0
7369 O3 64.22 28.82 51.64 O.3 62 C462 0
7370 C 62.67 28.88 49.47 C.3 62 C462 0
7371 H 62.01 29.47 49.13 H 62 C462 0
7372 H 63.23 29.35 50.07 H 62 C462 0
7373 H 63.19 28.53 48.76 H 62 C462 0
7374 C 58.91 29.52 52.64 C.3 62 C462 0
7375 C 59.88 30.33 52.04 C.3 62 C462 0
7376 H 58.34 30.06 53.19 H 62 C462 0
7377 H 60.47 30.67 52.71 H 62 C462 0
7378 H 59.46 31.06 51.6 H 62 C462 0
7379 C1 60.68 29.51 51.02 C.3 62 C462 0
7380 O2 60.88 29.96 49.89 O.3 62 C462 0
7381 O3 61.15 28.28 51.36 O.3 62 C462 0
7382 C 59.6 28.46 53.51 C.3 62 C462 0
7383 H 58.94 27.91 53.92 H 62 C462 0
7384 H 60.17 27.92 52.97 H 62 C462 0
7385 H 60.12 28.88 54.19 H 62 C462 0
7386 C 55.84 27.47 50.43 C.3 62 C462 0
7387 C 56.81 26.73 51.12 C.3 62 C462 0
7388 H 55.27 26.88 49.95 H 62 C462 0
7389 H 57.4 26.32 50.5 H 62 C462 0
7390 H 56.39 26.06 51.64 H 62 C462 0
7391 C1 57.61 27.66 52.05 C.3 62 C462 0
7392 O2 57.81 27.34 53.22 O.3 62 C462 0
7393 O3 58.09 28.85 51.57 O.3 62 C462 0
7394 C 56.53 28.43 49.45 C.3 62 C462 0
7395 H 55.87 28.94 48.99 H 62 C462 0
7396 H 57.1 29.02 49.93 H 62 C462 0
7397 H 57.05 27.94 48.83 H 62 C462 0
7398 C 52.77 29.76 52.4 C.3 62 C462 0
7399 C 53.74 30.42 51.64 C.3 62 C462 0
7400 H 52.21 30.4 52.82 H 62 C462 0
7401 H 54.33 30.89 52.21 H 62 C462 0
7402 H 53.32 31.03 51.05 H 62 C462 0
7403 C1 54.54 29.38 50.82 C.3 62 C462 0
7404 O2 54.75 29.57 49.62 O.3 62 C462 0
7405 O3 55.02 28.26 51.42 O.3 62 C462 0
7406 C 53.46 28.91 53.49 C.3 62 C462 0
7407 H 52.81 28.46 54 H 62 C462 0
7408 H 54.03 28.27 53.07 H 62 C462 0
7409 H 53.98 29.47 54.05 H 62 C462 0
7410 C 49.71 27.27 50.7 C.3 62 C462 0
7411 C 50.68 26.69 51.53 C.3 62 C462 0
7412 H 49.14 26.58 50.36 H 62 C462 0
7413 H 51.27 26.16 51.01 H 62 C462 0
7414 H 50.25 26.15 52.19 H 62 C462 0
7415 C1 51.47 27.81 52.23 C.3 62 C462 0
7416 O2 51.68 27.76 53.44 O.3 62 C462 0
7417 O3 51.95 28.86 51.51 O.3 62 C462 0
7418 C 50.4 27.99 49.53 C.3 62 C462 0
7419 H 49.74 28.38 48.96 H 62 C462 0
7420 H 50.96 28.67 49.87 H 62 C462 0
7421 H 50.91 27.37 49.03 H 62 C462 0
7422 C 46.64 29.93 52.12 C.3 62 C462 0
7423 C 47.61 30.41 51.23 C.3 62 C462 0
7424 H 46.07 30.65 52.38 H 62 C462 0
7425 H 48.2 30.99 51.68 H 62 C462 0
7426 H 47.19 30.87 50.52 H 62 C462 0
7427 C1 48.41 29.22 50.66 C.3 62 C462 0
7428 O2 48.61 29.14 49.45 O.3 62 C462 0
7429 O3 48.88 28.25 51.49 O.3 62 C462 0
7430 C 47.33 29.34 53.36 C.3 62 C462 0
7431 H 46.67 29.02 53.96 H 62 C462 0
7432 H 47.9 28.62 53.1 H 62 C462 0
7433 H 47.85 30.01 53.78 H 62 C462 0
7434 C 43.57 27.13 51 C.3 62 C462 0
7435 C 44.54 26.75 51.94 C.3 62 C462 0
7436 H 43.01 26.38 50.82 H 62 C462 0
7437 H 45.13 26.12 51.55 H 62 C462 0
7438 H 44.12 26.37 52.7 H 62 C462 0
7439 C1 45.34 28 52.38 C.3 62 C462 0
7440 O2 45.54 28.21 53.57 O.3 62 C462 0
7441 O3 45.82 28.86 51.44 O.3 62 C462 0
7442 C 44.26 27.58 49.7 C.3 62 C462 0
7443 H 43.6 27.83 49.07 H 62 C462 0
7444 H 44.83 28.32 49.88 H 62 C462 0
7445 H 44.78 26.86 49.35 H 62 C462 0
7446 C 40.5 30.04 51.8 C.3 62 C462 0
7447 C 41.47 30.3 50.83 C.3 62 C462 0
7448 H 39.94 30.79 51.9 H 62 C462 0
7449 H 42.06 30.98 51.14 H 62 C462 0
7450 H 41.05 30.6 50.03 H 62 C462 0
7451 C1 42.27 29.02 50.53 C.3 62 C462 0
7452 O2 42.48 28.68 49.37 O.3 62 C462 0
7453 O3 42.75 28.26 51.56 O.3 62 C462 0
7454 C 41.19 29.73 53.14 C.3 62 C462 0
7455 H 40.54 29.55 53.8 H 62 C462 0
7456 H 41.76 28.98 53.04 H 62 C462 0
7457 H 41.71 30.48 53.41 H 62 C462 0
7458 C 37.44 27.06 51.33 C.3 62 C462 0
7459 C 38.41 26.9 52.33 C.3 62 C462 0
7460 H 36.87 26.29 51.32 H 62 C462 0
7461 H 39 26.19 52.09 H 62 C462 0
7462 H 37.98 26.69 53.15 H 62 C462 0
7463 C1 39.2 28.21 52.48 C.3 62 C462 0
7464 O2 39.41 28.68 53.6 O.3 62 C462 0
7465 O3 39.68 28.85 51.38 O.3 62 C462 0
7466 C 38.13 27.21 49.96 C.3 62 C462 0
7467 H 37.47 27.32 49.29 H 62 C462 0
7468 H 38.69 27.97 49.98 H 62 C462 0
7469 H 38.64 26.43 49.78 H 62 C462 0
7470 C 34.37 30.07 51.47 C.3 62 C462 0
7471 C 35.34 30.12 50.46 C.3 62 C462 0
7472 H 33.8 30.83 51.4 H 62 C462 0
7473 H 35.93 30.84 50.62 H 62 C462 0
7474 H 34.91 30.23 49.62 H 62 C462 0
7475 C1 36.14 28.8 50.45 C.3 62 C462 0
7476 O2 36.34 28.21 49.39 O.3 62 C462 0
7477 O3 36.61 28.29 51.62 O.3 62 C462 0
7478 C 35.06 30.07 52.84 C.3 62 C462 0
7479 H 34.4 30.04 53.53 H 62 C462 0
7480 H 35.62 29.31 52.91 H 62 C462 0
7481 H 35.58 30.86 52.94 H 62 C462 0
7482 C 31.3 27.06 51.67 C.3 62 C462 0
7483 C 32.27 27.13 52.67 C.3 62 C462 0
7484 H 30.73 26.31 51.82 H 62 C462 0
7485 H 32.86 26.38 52.59 H 62 C462 0
7486 H 31.85 27.1 53.52 H 62 C462 0
7487 C1 33.07 28.44 52.53 C.3 62 C462 0
7488 O2 33.27 29.14 53.52 O.3 62 C462 0
7489 O3 33.54 28.81 51.32 O.3 62 C462 0
7490 C 31.99 26.91 50.3 C.3 62 C462 0
7491 H 31.33 26.86 49.61 H 62 C462 0
7492 H 32.56 27.66 50.14 H 62 C462 0
7493 H 32.51 26.11 50.29 H 62 C462 0
7494 C 28.23 30.03 51.14 C.3 62 C462 0
7495 C 29.2 29.86 50.14 C.3 62 C462 0
7496 H 27.67 30.76 50.9 H 62 C462 0
7497 H 29.79 30.6 50.14 H 62 C462 0
7498 H 28.78 29.78 49.3 H 62 C462 0
7499 C1 30 28.57 50.43 C.3 62 C462 0
7500 O2 30.21 27.76 49.52 O.3 62 C462 0
7501 O3 30.48 28.33 51.68 O.3 62 C462 0
7502 C 28.92 30.33 52.48 C.3 62 C462 0
7503 H 28.27 30.45 53.15 H 62 C462 0
7504 H 29.49 29.61 52.71 H 62 C462 0
7505 H 29.44 31.13 52.4 H 62 C462 0
7506 C 25.17 27.14 51.99 C.3 62 C462 0
7507 C 26.14 27.42 52.96 C.3 62 C462 0
7508 H 24.6 26.44 52.31 H 62 C462 0
7509 H 26.73 26.68 53.04 H 62 C462 0
7510 H 25.71 27.59 53.79 H 62 C462 0
7511 C1 26.93 28.67 52.53 C.3 62 C462 0
7512 O2 27.14 29.57 53.34 O.3 62 C462 0
7513 O3 27.41 28.77 51.27 O.3 62 C462 0
7514 C 25.86 26.69 50.69 C.3 62 C462 0
7515 H 25.2 26.5 50.03 H 62 C462 0
7516 H 26.42 27.38 50.38 H 62 C462 0
7517 H 26.37 25.91 50.86 H 62 C462 0
7518 C 22.1 29.92 50.82 C.3 62 C462 0
7519 C 23.07 29.53 49.89 C.3 62 C462 0
7520 H 21.53 30.58 50.43 H 62 C462 0
7521 H 23.66 30.25 49.72 H 62 C462 0
7522 H 22.64 29.27 49.08 H 62 C462 0
7523 C1 23.87 28.34 50.45 C.3 62 C462 0
7524 O2 24.07 27.35 49.75 O.3 62 C462 0
7525 O3 24.34 28.37 51.72 O.3 62 C462 0
7526 C 22.79 30.51 52.07 C.3 62 C462 0
7527 H 22.13 30.78 52.7 H 62 C462 0
7528 H 23.35 29.85 52.45 H 62 C462 0
7529 H 23.31 31.27 51.81 H 62 C462 0
7530 C 19.03 27.28 52.29 C.3 62 C462 0
7531 C 20 27.78 53.17 C.3 62 C462 0
7532 H 18.46 26.68 52.75 H 62 C462 0
7533 H 20.59 27.07 53.42 H 62 C462 0
7534 H 19.58 28.12 53.95 H 62 C462 0
7535 C1 20.8 28.9 52.48 C.3 62 C462 0
7536 O2 21 29.96 53.08 O.3 62 C462 0
7537 O3 21.27 28.72 51.22 O.3 62 C462 0
7538 C 19.72 26.56 51.12 C.3 62 C462 0
7539 H 19.06 26.23 50.52 H 62 C462 0
7540 H 20.29 27.17 50.66 H 62 C462 0
7541 H 20.24 25.84 51.46 H 62 C462 0
7542 C 15.96 29.74 50.54 C.3 62 C462 0
7543 C 16.93 29.16 49.72 C.3 62 C462 0
7544 H 15.4 30.3 50.02 H 62 C462 0
7545 H 17.52 29.83 49.4 H 62 C462 0
7546 H 16.51 28.73 48.98 H 62 C462 0
7547 C1 17.73 28.12 50.53 C.3 62 C462 0
7548 O2 17.94 27 50.06 O.3 62 C462 0
7549 O3 18.21 28.43 51.76 O.3 62 C462 0
7550 C 16.65 30.59 51.62 C.3 62 C462 0
7551 H 16 30.99 52.18 H 62 C462 0
7552 H 17.22 30.04 52.15 H 62 C462 0
7553 H 17.17 31.27 51.21 H 62 C462 0
7554 C 12.89 27.49 52.55 C.3 62 C462 0
7555 C 13.87 28.17 53.31 C.3 62 C462 0
7556 H 12.33 27 53.13 H 62 C462 0
7557 H 14.45 27.54 53.7 H 62 C462 0
7558 H 13.44 28.67 53.99 H 62 C462 0
7559 C1 14.66 29.11 52.39 C.3 62 C462 0
7560 O2 14.87 30.28 52.73 O.3 62 C462 0
7561 O3 15.14 28.66 51.2 O.3 62 C462 0
7562 C 13.59 26.53 51.57 C.3 62 C462 0
7563 H 12.93 26.07 51.06 H 62 C462 0
7564 H 14.15 27.02 50.99 H 62 C462 0
7565 H 14.1 25.9 52.06 H 62 C462 0
7566 C 9.83 29.51 50.3 C.3 62 C462 0
7567 C 10.8 28.75 49.63 C.3 62 C462 0
7568 H 9.26 29.93 49.67 H 62 C462 0
7569 H 11.39 29.34 49.17 H 62 C462 0
7570 H 10.37 28.17 49.01 H 62 C462 0
7571 C1 11.59 27.92 50.65 C.3 62 C462 0
7572 O2 11.8 26.72 50.43 O.3 62 C462 0
7573 O3 12.07 28.5 51.78 O.3 62 C462 0
7574 C 10.52 30.57 51.17 C.3 62 C462 0
7575 H 9.86 31.08 51.63 H 62 C462 0
7576 H 11.08 30.15 51.81 H 62 C462 0
7577 H 11.04 31.15 50.62 H 62 C462 0
7578 C 6.76 27.76 52.76 C.3 62 C462 0
7579 C 7.73 28.58 53.35 C.3 62 C462 0
7580 H 6.19 27.4 53.44 H 62 C462 0
7581 H 8.32 28.05 53.87 H 62 C462 0
7582 H 7.31 29.22 53.9 H 62 C462 0
7583 C1 8.53 29.3 52.24 C.3 62 C462 0
7584 O2 8.73 30.51 52.32 O.3 62 C462 0
7585 O3 9 28.6 51.18 O.3 62 C462 0
7586 C 7.45 26.6 52.01 C.3 62 C462 0
7587 H 6.79 26.04 51.62 H 62 C462 0
7588 H 8.02 26.95 51.34 H 62 C462 0
7589 H 7.97 26.09 52.63 H 62 C462 0
7590 H 3.17 28.79 50.79 H 63 C463 0
7591 C 3.69 29.22 50.12 C.3 63 C463 0
7592 C 4.66 28.34 49.63 C.3 63 C463 0
7593 H 3.13 29.5 49.41 H 63 C463 0
7594 H 5.25 28.81 49.06 H 63 C463 0
7595 H 4.24 27.64 49.15 H 63 C463 0
7596 C1 5.46 27.75 50.81 C.3 63 C463 0
7597 O2 5.67 26.54 50.87 O.3 63 C463 0
7598 O3 5.94 28.56 51.79 O.3 63 C463 0
7599 C 4.38 30.46 50.74 C.3 63 C463 0
7600 H 3.72 31.05 51.07 H 63 C463 0
7601 H 4.95 30.18 51.45 H 63 C463 0
7602 H 4.9 30.89 50.07 H 63 C463 0
7603 C 92.65 29.31 61.6 C.3 64 C464 0
7604 C 93.62 28.47 61.05 C.3 64 C464 0
7605 H 92.09 29.64 60.91 H 64 C464 0
7606 H 94.21 28.98 60.51 H 64 C464 0
7607 H 93.2 27.8 60.52 H 64 C464 0
7608 C1 94.42 27.79 62.18 C.3 64 C464 0
7609 O2 94.63 26.58 62.15 O.3 64 C464 0
7610 O3 94.9 28.53 63.21 O.3 64 C464 0
7611 H5 95.42 27.98 63.79 H 64 C464 0
7612 C 93.34 30.49 62.31 C.3 64 C464 0
7613 H 92.68 31.07 62.68 H 64 C464 0
7614 H 93.91 30.17 62.99 H 64 C464 0
7615 H 93.86 30.98 61.67 H 64 C464 0
7616 C 89.58 27.95 64.29 C.3 65 C465 0
7617 C 90.55 28.85 64.75 C.3 65 C465 0
7618 H 89.02 27.7 65.01 H 65 C465 0
7619 H 91.15 28.4 65.35 H 65 C465 0
7620 H 90.13 29.57 65.2 H 65 C465 0
7621 C1 91.35 29.39 63.55 C.3 65 C465 0
7622 O2 91.56 30.6 63.45 O.3 65 C465 0
7623 O3 91.83 28.54 62.61 O.3 65 C465 0
7624 C 90.28 26.69 63.73 C.3 65 C465 0
7625 H 89.62 26.08 63.42 H 65 C465 0
7626 H 90.84 26.94 63.01 H 65 C465 0
7627 H 90.79 26.28 64.41 H 65 C465 0
7628 C 86.52 29.01 61.47 C.3 65 C465 0
7629 C 87.49 28.06 61.11 C.3 65 C465 0
7630 H 85.95 29.17 60.72 H 65 C465 0
7631 H 88.08 28.44 60.47 H 65 C465 0
7632 H 87.06 27.3 60.74 H 65 C465 0
7633 C1 88.28 27.65 62.37 C.3 65 C465 0
7634 O2 88.49 26.46 62.6 O.3 65 C465 0
7635 O3 88.76 28.6 63.21 O.3 65 C465 0
7636 C 87.21 30.32 61.89 C.3 65 C465 0
7637 H 86.55 30.96 62.13 H 65 C465 0
7638 H 87.77 30.15 62.64 H 65 C465 0
7639 H 87.73 30.65 61.17 H 65 C465 0
7640 C 83.45 28.27 64.39 C.3 65 C465 0
7641 C 84.42 29.24 64.64 C.3 65 C465 0
7642 H 82.88 28.18 65.15 H 65 C465 0
7643 H 85.01 28.94 65.32 H 65 C465 0
7644 H 84 30.05 64.93 H 65 C465 0
7645 C1 85.22 29.52 63.35 C.3 65 C465 0
7646 O2 85.42 30.67 62.99 O.3 65 C465 0
7647 O3 85.69 28.48 62.62 O.3 65 C465 0
7648 C 84.14 26.92 64.12 C.3 65 C465 0
7649 H 83.48 26.25 63.95 H 65 C465 0
7650 H 84.71 27 63.36 H 65 C465 0
7651 H 84.66 26.67 64.87 H 65 C465 0
7652 C 80.38 28.68 61.4 C.3 65 C465 0
7653 C 81.35 27.68 61.27 C.3 65 C465 0
7654 H 79.82 28.68 60.64 H 65 C465 0
7655 H 81.94 27.91 60.56 H 65 C465 0
7656 H 80.93 26.85 61.07 H 65 C465 0
7657 C1 82.15 27.55 62.58 C.3 65 C465 0
7658 O2 82.36 26.44 63.07 O.3 65 C465 0
7659 O3 82.63 28.67 63.19 O.3 65 C465 0
7660 C 81.07 30.05 61.53 C.3 65 C465 0
7661 H 80.41 30.73 61.63 H 65 C465 0
7662 H 81.64 30.05 62.29 H 65 C465 0
7663 H 81.59 30.22 60.75 H 65 C465 0
7664 C 77.31 28.6 64.42 C.3 65 C465 0
7665 C 78.28 29.61 64.45 C.3 65 C465 0
7666 H 76.75 28.68 65.18 H 65 C465 0
7667 H 78.88 29.46 65.18 H 65 C465 0
7668 H 77.86 30.45 64.55 H 65 C465 0
7669 C1 79.08 29.59 63.13 C.3 65 C465 0
7670 O2 79.29 30.64 62.52 O.3 65 C465 0
7671 O3 79.56 28.41 62.64 O.3 65 C465 0
7672 C 78.01 27.22 64.45 C.3 65 C465 0
7673 H 77.35 26.54 64.43 H 65 C465 0
7674 H 78.57 27.14 63.69 H 65 C465 0
7675 H 78.52 27.14 65.24 H 65 C465 0
7676 C 74.25 28.35 61.41 C.3 65 C465 0
7677 C 75.22 27.34 61.5 C.3 65 C465 0
7678 H 73.68 28.18 60.67 H 65 C465 0
7679 H 75.81 27.4 60.76 H 65 C465 0
7680 H 74.79 26.49 61.49 H 65 C465 0
7681 C1 76.01 27.5 62.81 C.3 65 C465 0
7682 O2 76.22 26.53 63.53 O.3 65 C465 0
7683 O3 76.49 28.73 63.16 O.3 65 C465 0
7684 C 74.94 29.71 61.24 C.3 65 C465 0
7685 H 74.28 30.39 61.18 H 65 C465 0
7686 H 75.5 29.88 61.98 H 65 C465 0
7687 H 75.46 29.7 60.44 H 65 C465 0
7688 C 71.18 28.93 64.38 C.3 65 C465 0
7689 C 72.15 29.92 64.18 C.3 65 C465 0
7690 H 70.61 29.18 65.1 H 65 C465 0
7691 H 72.74 29.94 64.92 H 65 C465 0
7692 H 71.73 30.77 64.09 H 65 C465 0
7693 C1 72.95 29.61 62.9 C.3 65 C465 0
7694 O2 73.15 30.5 62.07 O.3 65 C465 0
7695 O3 73.42 28.36 62.68 O.3 65 C465 0
7696 C 71.87 27.59 64.7 C.3 65 C465 0
7697 H 71.21 26.92 64.84 H 65 C465 0
7698 H 72.44 27.35 63.98 H 65 C465 0
7699 H 72.39 27.69 65.49 H 65 C465 0
7700 C 68.11 28.02 61.5 C.3 65 C465 0
7701 C 69.08 27.06 61.8 C.3 65 C465 0
7702 H 67.55 27.69 60.81 H 65 C465 0
7703 H 69.67 26.96 61.06 H 65 C465 0
7704 H 68.66 26.23 61.98 H 65 C465 0
7705 C1 69.88 27.51 63.04 C.3 65 C465 0
7706 O2 70.09 26.72 63.96 O.3 65 C465 0
7707 O3 70.36 28.78 63.12 O.3 65 C465 0
7708 C 68.8 29.31 61.02 C.3 65 C465 0
7709 H 68.14 29.97 60.82 H 65 C465 0
7710 H 69.37 29.64 61.71 H 65 C465 0
7711 H 69.32 29.13 60.25 H 65 C465 0
7712 C 65.04 29.24 64.26 C.3 65 C465 0
7713 C 66.01 30.17 63.85 C.3 65 C465 0
7714 H 64.48 29.65 64.91 H 65 C465 0
7715 H 66.6 30.35 64.57 H 65 C465 0
7716 H 65.59 30.97 63.58 H 65 C465 0
7717 C1 66.81 29.59 62.67 C.3 65 C465 0
7718 O2 67.02 30.27 61.67 O.3 65 C465 0
7719 O3 67.29 28.31 62.73 O.3 65 C465 0
7720 C 65.74 28.01 64.87 C.3 65 C465 0
7721 H 65.08 27.39 65.15 H 65 C465 0
7722 H 66.3 27.61 64.22 H 65 C465 0
7723 H 66.25 28.28 65.62 H 65 C465 0
7724 C 61.98 27.73 61.65 C.3 65 C465 0
7725 C 62.95 26.85 62.16 C.3 65 C465 0
7726 H 61.41 27.25 61.05 H 65 C465 0
7727 H 63.54 26.59 61.46 H 65 C465 0
7728 H 62.52 26.08 62.52 H 65 C465 0
7729 C1 63.74 27.56 63.27 C.3 65 C465 0
7730 O2 63.95 26.99 64.34 O.3 65 C465 0
7731 O3 64.22 28.82 63.07 O.3 65 C465 0
7732 C 62.67 28.88 60.9 C.3 65 C465 0
7733 H 62.01 29.47 60.56 H 65 C465 0
7734 H 63.23 29.35 61.5 H 65 C465 0
7735 H 63.19 28.53 60.19 H 65 C465 0
7736 C 58.91 29.52 64.07 C.3 65 C465 0
7737 C 59.88 30.33 63.47 C.3 65 C465 0
7738 H 58.34 30.06 64.62 H 65 C465 0
7739 H 60.47 30.67 64.14 H 65 C465 0
7740 H 59.46 31.06 63.03 H 65 C465 0
7741 C1 60.68 29.51 62.45 C.3 65 C465 0
7742 O2 60.88 29.96 61.32 O.3 65 C465 0
7743 O3 61.15 28.28 62.79 O.3 65 C465 0
7744 C 59.6 28.46 64.94 C.3 65 C465 0
7745 H 58.94 27.91 65.35 H 65 C465 0
7746 H 60.17 27.92 64.4 H 65 C465 0
7747 H 60.12 28.88 65.62 H 65 C465 0
7748 C 55.84 27.47 61.86 C.3 65 C465 0
7749 C 56.81 26.73 62.55 C.3 65 C465 0
7750 H 55.27 26.88 61.38 H 65 C465 0
7751 H 57.4 26.32 61.93 H 65 C465 0
7752 H 56.39 26.06 63.07 H 65 C465 0
7753 C1 57.61 27.66 63.48 C.3 65 C465 0
7754 O2 57.81 27.34 64.65 O.3 65 C465 0
7755 O3 58.09 28.85 63 O.3 65 C465 0
7756 C 56.53 28.43 60.88 C.3 65 C465 0
7757 H 55.87 28.94 60.42 H 65 C465 0
7758 H 57.1 29.02 61.36 H 65 C465 0
7759 H 57.05 27.94 60.26 H 65 C465 0
7760 C 52.77 29.76 63.83 C.3 65 C465 0
7761 C 53.74 30.42 63.07 C.3 65 C465 0
7762 H 52.21 30.4 64.25 H 65 C465 0
7763 H 54.33 30.89 63.64 H 65 C465 0
7764 H 53.32 31.03 62.48 H 65 C465 0
7765 C1 54.54 29.38 62.25 C.3 65 C465 0
7766 O2 54.75 29.57 61.05 O.3 65 C465 0
7767 O3 55.02 28.26 62.85 O.3 65 C465 0
7768 C 53.46 28.91 64.92 C.3 65 C465 0
7769 H 52.81 28.46 65.43 H 65 C465 0
7770 H 54.03 28.27 64.5 H 65 C465 0
7771 H 53.98 29.47 65.48 H 65 C465 0
7772 C 49.71 27.27 62.13 C.3 65 C465 0
7773 C 50.68 26.69 62.96 C.3 65 C465 0
7774 H 49.14 26.58 61.79 H 65 C465 0
7775 H 51.27 26.16 62.44 H 65 C465 0
7776 H 50.25 26.15 63.62 H 65 C465 0
7777 C1 51.47 27.81 63.66 C.3 65 C465 0
7778 O2 51.68 27.76 64.87 O.3 65 C465 0
7779 O3 51.95 28.86 62.94 O.3 65 C465 0
7780 C 50.4 27.99 60.96 C.3 65 C465 0
7781 H 49.74 28.38 60.39 H 65 C465 0
7782 H 50.96 28.67 61.3 H 65 C465 0
7783 H 50.91 27.37 60.46 H 65 C465 0
7784 C 46.64 29.93 63.55 C.3 65 C465 0
7785 C 47.61 30.41 62.66 C.3 65 C465 0
7786 H 46.07 30.65 63.81 H 65 C465 0
7787 H 48.2 30.99 63.11 H 65 C465 0
7788 H 47.19 30.87 61.95 H 65 C465 0
7789 C1 48.41 29.22 62.09 C.3 65 C465 0
7790 O2 48.61 29.14 60.88 O.3 65 C465 0
7791 O3 48.88 28.25 62.92 O.3 65 C465 0
7792 C 47.33 29.34 64.79 C.3 65 C465 0
7793 H 46.67 29.02 65.39 H 65 C465 0
7794 H 47.9 28.62 64.53 H 65 C465 0
7795 H 47.85 30.01 65.21 H 65 C465 0
7796 C 43.57 27.13 62.43 C.3 65 C465 0
7797 C 44.54 26.75 63.37 C.3 65 C465 0
7798 H 43.01 26.38 62.25 H 65 C465 0
7799 H 45.13 26.12 62.98 H 65 C465 0
7800 H 44.12 26.37 64.13 H 65 C465 0
7801 C1 45.34 28 63.81 C.3 65 C465 0
7802 O2 45.54 28.21 65 O.3 65 C465 0
7803 O3 45.82 28.86 62.87 O.3 65 C465 0
7804 C 44.26 27.58 61.13 C.3 65 C465 0
7805 H 43.6 27.83 60.5 H 65 C465 0
7806 H 44.83 28.32 61.31 H 65 C465 0
7807 H 44.78 26.86 60.78 H 65 C465 0
7808 C 40.5 30.04 63.23 C.3 65 C465 0
7809 C 41.47 30.3 62.26 C.3 65 C465 0
7810 H 39.94 30.79 63.33 H 65 C465 0
7811 H 42.06 30.98 62.57 H 65 C465 0
7812 H 41.05 30.6 61.46 H 65 C465 0
7813 C1 42.27 29.02 61.96 C.3 65 C465 0
7814 O2 42.48 28.68 60.8 O.3 65 C465 0
7815 O3 42.75 28.26 62.99 O.3 65 C465 0
7816 C 41.19 29.73 64.57 C.3 65 C465 0
7817 H 40.54 29.55 65.23 H 65 C465 0
7818 H 41.76 28.98 64.47 H 65 C465 0
7819 H 41.71 30.48 64.84 H 65 C465 0
7820 C 37.44 27.06 62.76 C.3 65 C465 0
7821 C 38.41 26.9 63.76 C.3 65 C465 0
7822 H 36.87 26.29 62.75 H 65 C465 0
7823 H 39 26.19 63.52 H 65 C465 0
7824 H 37.98 26.69 64.58 H 65 C465 0
7825 C1 39.2 28.21 63.91 C.3 65 C465 0
7826 O2 39.41 28.68 65.03 O.3 65 C465 0
7827 O3 39.68 28.85 62.81 O.3 65 C465 0
7828 C 38.13 27.21 61.39 C.3 65 C465 0
7829 H 37.47 27.32 60.72 H 65 C465 0
7830 H 38.69 27.97 61.41 H 65 C465 0
7831 H 38.64 26.43 61.21 H 65 C465 0
7832 C 34.37 30.07 62.9 C.3 65 C465 0
7833 C 35.34 30.12 61.89 C.3 65 C465 0
7834 H 33.8 30.83 62.83 H 65 C465 0
7835 H 35.93 30.84 62.05 H 65 C465 0
7836 H 34.91 30.23 61.05 H 65 C465 0
7837 C1 36.14 28.8 61.88 C.3 65 C465 0
7838 O2 36.34 28.21 60.82 O.3 65 C465 0
7839 O3 36.61 28.29 63.05 O.3 65 C465 0
7840 C 35.06 30.07 64.27 C.3 65 C465 0
7841 H 34.4 30.04 64.96 H 65 C465 0
7842 H 35.62 29.31 64.34 H 65 C465 0
7843 H 35.58 30.86 64.37 H 65 C465 0
7844 C 31.3 27.06 63.1 C.3 65 C465 0
7845 C 32.27 27.13 64.1 C.3 65 C465 0
7846 H 30.73 26.31 63.25 H 65 C465 0
7847 H 32.86 26.38 64.02 H 65 C465 0
7848 H 31.85 27.1 64.95 H 65 C465 0
7849 C1 33.07 28.44 63.96 C.3 65 C465 0
7850 O2 33.27 29.14 64.95 O.3 65 C465 0
7851 O3 33.54 28.81 62.75 O.3 65 C465 0
7852 C 31.99 26.91 61.73 C.3 65 C465 0
7853 H 31.33 26.86 61.04 H 65 C465 0
7854 H 32.56 27.66 61.57 H 65 C465 0
7855 H 32.51 26.11 61.72 H 65 C465 0
7856 C 28.23 30.03 62.57 C.3 65 C465 0
7857 C 29.2 29.86 61.57 C.3 65 C465 0
7858 H 27.67 30.76 62.33 H 65 C465 0
7859 H 29.79 30.6 61.57 H 65 C465 0
7860 H 28.78 29.78 60.73 H 65 C465 0
7861 C1 30 28.57 61.86 C.3 65 C465 0
7862 O2 30.21 27.76 60.95 O.3 65 C465 0
7863 O3 30.48 28.33 63.11 O.3 65 C465 0
7864 C 28.92 30.33 63.91 C.3 65 C465 0
7865 H 28.27 30.45 64.58 H 65 C465 0
7866 H 29.49 29.61 64.14 H 65 C465 0
7867 H 29.44 31.13 63.83 H 65 C465 0
7868 C 25.17 27.14 63.42 C.3 65 C465 0
7869 C 26.14 27.42 64.39 C.3 65 C465 0
7870 H 24.6 26.44 63.74 H 65 C465 0
7871 H 26.73 26.68 64.47 H 65 C465 0
7872 H 25.71 27.59 65.22 H 65 C465 0
7873 C1 26.93 28.67 63.96 C.3 65 C465 0
7874 O2 27.14 29.57 64.77 O.3 65 C465 0
7875 O3 27.41 28.77 62.7 O.3 65 C465 0
7876 C 25.86 26.69 62.12 C.3 65 C465 0
7877 H 25.2 26.5 61.46 H 65 C465 0
7878 H 26.42 27.38 61.81 H 65 C465 0
7879 H 26.37 25.91 62.29 H 65 C465 0
7880 C 22.1 29.92 62.25 C.3 65 C465 0
7881 C 23.07 29.53 61.32 C.3 65 C465 0
7882 H 21.53 30.58 61.86 H 65 C465 0
7883 H 23.66 30.25 61.15 H 65 C465 0
7884 H 22.64 29.27 60.51 H 65 C465 0
7885 C1 23.87 28.34 61.88 C.3 65 C465 0
7886 O2 24.07 27.35 61.18 O.3 65 C465 0
7887 O3 24.34 28.37 63.15 O.3 65 C465 0
7888 C 22.79 30.51 63.5 C.3 65 C465 0
7889 H 22.13 30.78 64.13 H 65 C465 0
7890 H 23.35 29.85 63.88 H 65 C465 0
7891 H 23.31 31.27 63.24 H 65 C465 0
7892 C 19.03 27.28 63.72 C.3 65 C465 0
7893 C 20 27.78 64.6 C.3 65 C465 0
7894 H 18.46 26.68 64.18 H 65 C465 0
7895 H 20.59 27.07 64.85 H 65 C465 0
7896 H 19.58 28.12 65.38 H 65 C465 0
7897 C1 20.8 28.9 63.91 C.3 65 C465 0
7898 O2 21 29.96 64.51 O.3 65 C465 0
7899 O3 21.27 28.72 62.65 O.3 65 C465 0
7900 C 19.72 26.56 62.55 C.3 65 C465 0
7901 H 19.06 26.23 61.95 H 65 C465 0
7902 H 20.29 27.17 62.09 H 65 C465 0
7903 H 20.24 25.84 62.89 H 65 C465 0
7904 C 15.96 29.74 61.97 C.3 65 C465 0
7905 C 16.93 29.16 61.15 C.3 65 C465 0
7906 H 15.4 30.3 61.45 H 65 C465 0
7907 H 17.52 29.83 60.83 H 65 C465 0
7908 H 16.51 28.73 60.41 H 65 C465 0
7909 C1 17.73 28.12 61.96 C.3 65 C465 0
7910 O2 17.94 27 61.49 O.3 65 C465 0
7911 O3 18.21 28.43 63.19 O.3 65 C465 0
7912 C 16.65 30.59 63.05 C.3 65 C465 0
7913 H 16 30.99 63.61 H 65 C465 0
7914 H 17.22 30.04 63.58 H 65 C465 0
7915 H 17.17 31.27 62.64 H 65 C465 0
7916 C 12.89 27.49 63.98 C.3 65 C465 0
7917 C 13.87 28.17 64.74 C.3 65 C465 0
7918 H 12.33 27 64.56 H 65 C465 0
7919 H 14.45 27.54 65.13 H 65 C465 0
7920 H 13.44 28.67 65.42 H 65 C465 0
7921 C1 14.66 29.11 63.82 C.3 65 C465 0
7922 O2 14.87 30.28 64.16 O.3 65 C465 0
7923 O3 15.14 28.66 62.63 O.3 65 C465 0
7924 C 13.59 26.53 63 C.3 65 C465 0
7925 H 12.93 26.07 62.49 H 65 C465 0
7926 H 14.15 27.02 62.42 H 65 C465 0
7927 H 14.1 25.9 63.49 H 65 C465 0
7928 C 9.83 29.51 61.73 C.3 65 C465 0
7929 C 10.8 28.75 61.06 C.3 65 C465 0
7930 H 9.26 29.93 61.1 H 65 C465 0
7931 H 11.39 29.34 60.6 H 65 C465 0
7932 H 10.37 28.17 60.44 H 65 C465 0
7933 C1 11.59 27.92 62.08 C.3 65 C465 0
7934 O2 11.8 26.72 61.86 O.3 65 C465 0
7935 O3 12.07 28.5 63.21 O.3 65 C465 0
7936 C 10.52 30.57 62.6 C.3 65 C465 0
7937 H 9.86 31.08 63.06 H 65 C465 0
7938 H 11.08 30.15 63.24 H 65 C465 0
7939 H 11.04 31.15 62.05 H 65 C465 0
7940 C 6.76 27.76 64.19 C.3 65 C465 0
7941 C 7.73 28.58 64.78 C.3 65 C465 0
7942 H 6.19 27.4 64.87 H 65 C465 0
7943 H 8.32 28.05 65.3 H 65 C465 0
7944 H 7.31 29.22 65.33 H 65 C465 0
7945 C1 8.53 29.3 63.67 C.3 65 C465 0
7946 O2 8.73 30.51 63.75 O.3 65 C465 0
7947 O3 9 28.6 62.61 O.3 65 C465 0
7948 C 7.45 26.6 63.44 C.3 65 C465 0
7949 H 6.79 26.04 63.05 H 65 C465 0
7950 H 8.02 26.95 62.77 H 65 C465 0
7951 H 7.97 26.09 64.06 H 65 C465 0
7952 H 3.17 28.79 62.22 H 66 C466 0
7953 C 3.69 29.22 61.55 C.3 66 C466 0
7954 C 4.66 28.34 61.06 C.3 66 C466 0
7955 H 3.13 29.5 60.84 H 66 C466 0
7956 H 5.25 28.81 60.49 H 66 C466 0
7957 H 4.24 27.64 60.58 H 66 C466 0
7958 C1 5.46 27.75 62.24 C.3 66 C466 0
7959 O2 5.67 26.54 62.3 O.3 66 C466 0
7960 O3 5.94 28.56 63.22 O.3 66 C466 0
7961 C 4.38 30.46 62.17 C.3 66 C466 0
7962 H 3.72 31.05 62.5 H 66 C466 0
7963 H 4.95 30.18 62.88 H 66 C466 0
7964 H 4.9 30.89 61.5 H 66 C466 0
7965 C 92.65 29.31 73.03 C.3 67 C467 0
7966 C 93.62 28.47 72.48 C.3 67 C467 0
7967 H 92.09 29.64 72.34 H 67 C467 0
7968 H 94.21 28.98 71.94 H 67 C467 0
7969 H 93.2 27.8 71.95 H 67 C467 0
7970 C1 94.42 27.79 73.61 C.3 67 C467 0
7971 O2 94.63 26.58 73.58 O.3 67 C467 0
7972 O3 94.9 28.53 74.64 O.3 67 C467 0
7973 H5 95.42 27.98 75.22 H 67 C467 0
7974 C 93.34 30.49 73.74 C.3 67 C467 0
7975 H 92.68 31.07 74.11 H 67 C467 0
7976 H 93.91 30.17 74.42 H 67 C467 0
7977 H 93.86 30.98 73.1 H 67 C467 0
7978 C 89.58 27.95 75.72 C.3 68 C468 0
7979 C 90.55 28.85 76.18 C.3 68 C468 0
7980 H 89.02 27.7 76.44 H 68 C468 0
7981 H 91.15 28.4 76.78 H 68 C468 0
7982 H 90.13 29.57 76.63 H 68 C468 0
7983 C1 91.35 29.39 74.98 C.3 68 C468 0
7984 O2 91.56 30.6 74.88 O.3 68 C468 0
7985 O3 91.83 28.54 74.04 O.3 68 C468 0
7986 C 90.28 26.69 75.16 C.3 68 C468 0
7987 H 89.62 26.08 74.85 H 68 C468 0
7988 H 90.84 26.94 74.44 H 68 C468 0
7989 H 90.79 26.28 75.84 H 68 C468 0
7990 C 86.52 29.01 72.9 C.3 68 C468 0
7991 C 87.49 28.06 72.54 C.3 68 C468 0
7992 H 85.95 29.17 72.15 H 68 C468 0
7993 H 88.08 28.44 71.9 H 68 C468 0
7994 H 87.06 27.3 72.17 H 68 C468 0
7995 C1 88.28 27.65 73.8 C.3 68 C468 0
7996 O2 88.49 26.46 74.03 O.3 68 C468 0
7997 O3 88.76 28.6 74.64 O.3 68 C468 0
7998 C 87.21 30.32 73.32 C.3 68 C468 0
7999 H 86.55 30.96 73.56 H 68 C468 0
8000 H 87.77 30.15 74.07 H 68 C468 0
8001 H 87.73 30.65 72.6 H 68 C468 0
8002 C 83.45 28.27 75.82 C.3 68 C468 0
8003 C 84.42 29.24 76.07 C.3 68 C468 0
8004 H 82.88 28.18 76.58 H 68 C468 0
8005 H 85.01 28.94 76.75 H 68 C468 0
8006 H 84 30.05 76.36 H 68 C468 0
8007 C1 85.22 29.52 74.78 C.3 68 C468 0
8008 O2 85.42 30.67 74.42 O.3 68 C468 0
8009 O3 85.69 28.48 74.05 O.3 68 C468 0
8010 C 84.14 26.92 75.55 C.3 68 C468 0
8011 H 83.48 26.25 75.38 H 68 C468 0
8012 H 84.71 27 74.79 H 68 C468 0
8013 H 84.66 26.67 76.3 H 68 C468 0
8014 C 80.38 28.68 72.83 C.3 68 C468 0
8015 C 81.35 27.68 72.7 C.3 68 C468 0
8016 H 79.82 28.68 72.07 H 68 C468 0
8017 H 81.94 27.91 71.99 H 68 C468 0
8018 H 80.93 26.85 72.5 H 68 C468 0
8019 C1 82.15 27.55 74.01 C.3 68 C468 0
8020 O2 82.36 26.44 74.5 O.3 68 C468 0
8021 O3 82.63 28.67 74.62 O.3 68 C468 0
8022 C 81.07 30.05 72.96 C.3 68 C468 0
8023 H 80.41 30.73 73.06 H 68 C468 0
8024 H 81.64 30.05 73.72 H 68 C468 0
8025 H 81.59 30.22 72.18 H 68 C468 0
8026 C 77.31 28.6 75.85 C.3 68 C468 0
8027 C 78.28 29.61 75.88 C.3 68 C468 0
8028 H 76.75 28.68 76.61 H 68 C468 0
8029 H 78.88 29.46 76.61 H 68 C468 0
8030 H 77.86 30.45 75.98 H 68 C468 0
8031 C1 79.08 29.59 74.56 C.3 68 C468 0
8032 O2 79.29 30.64 73.95 O.3 68 C468 0
8033 O3 79.56 28.41 74.07 O.3 68 C468 0
8034 C 78.01 27.22 75.88 C.3 68 C468 0
8035 H 77.35 26.54 75.86 H 68 C468 0
8036 H 78.57 27.14 75.12 H 68 C468 0
8037 H 78.52 27.14 76.67 H 68 C468 0
8038 C 74.25 28.35 72.84 C.3 68 C468 0
8039 C 75.22 27.34 72.93 C.3 68 C468 0
8040 H 73.68 28.18 72.1 H 68 C468 0
8041 H 75.81 27.4 72.19 H 68 C468 0
8042 H 74.79 26.49 72.92 H 68 C468 0
8043 C1 76.01 27.5 74.24 C.3 68 C468 0
8044 O2 76.22 26.53 74.96 O.3 68 C468 0
8045 O3 76.49 28.73 74.59 O.3 68 C468 0
8046 C 74.94 29.71 72.67 C.3 68 C468 0
8047 H 74.28 30.39 72.61 H 68 C468 0
8048 H 75.5 29.88 73.41 H 68 C468 0
8049 H 75.46 29.7 71.87 H 68 C468 0
8050 C 71.18 28.93 75.81 C.3 68 C468 0
8051 C 72.15 29.92 75.61 C.3 68 C468 0
8052 H 70.61 29.18 76.53 H 68 C468 0
8053 H 72.74 29.94 76.35 H 68 C468 0
8054 H 71.73 30.77 75.52 H 68 C468 0
8055 C1 72.95 29.61 74.33 C.3 68 C468 0
8056 O2 73.15 30.5 73.5 O.3 68 C468 0
8057 O3 73.42 28.36 74.11 O.3 68 C468 0
8058 C 71.87 27.59 76.13 C.3 68 C468 0
8059 H 71.21 26.92 76.27 H 68 C468 0
8060 H 72.44 27.35 75.41 H 68 C468 0
8061 H 72.39 27.69 76.92 H 68 C468 0
8062 C 68.11 28.02 72.93 C.3 68 C468 0
8063 C 69.08 27.06 73.23 C.3 68 C468 0
8064 H 67.55 27.69 72.24 H 68 C468 0
8065 H 69.67 26.96 72.49 H 68 C468 0
8066 H 68.66 26.23 73.41 H 68 C468 0
8067 C1 69.88 27.51 74.47 C.3 68 C468 0
8068 O2 70.09 26.72 75.39 O.3 68 C468 0
8069 O3 70.36 28.78 74.55 O.3 68 C468 0
8070 C 68.8 29.31 72.45 C.3 68 C468 0
8071 H 68.14 29.97 72.25 H 68 C468 0
8072 H 69.37 29.64 73.14 H 68 C468 0
8073 H 69.32 29.13 71.68 H 68 C468 0
8074 C 65.04 29.24 75.69 C.3 68 C468 0
8075 C 66.01 30.17 75.28 C.3 68 C468 0
8076 H 64.48 29.65 76.34 H 68 C468 0
8077 H 66.6 30.35 76 H 68 C468 0
8078 H 65.59 30.97 75.01 H 68 C468 0
8079 C1 66.81 29.59 74.1 C.3 68 C468 0
8080 O2 67.02 30.27 73.1 O.3 68 C468 0
8081 O3 67.29 28.31 74.16 O.3 68 C468 0
8082 C 65.74 28.01 76.3 C.3 68 C468 0
8083 H 65.08 27.39 76.58 H 68 C468 0
8084 H 66.3 27.61 75.65 H 68 C468 0
8085 H 66.25 28.28 77.05 H 68 C468 0
8086 C 61.98 27.73 73.08 C.3 68 C468 0
8087 C 62.95 26.85 73.59 C.3 68 C468 0
8088 H 61.41 27.25 72.48 H 68 C468 0
8089 H 63.54 26.59 72.89 H 68 C468 0
8090 H 62.52 26.08 73.95 H 68 C468 0
8091 C1 63.74 27.56 74.7 C.3 68 C468 0
8092 O2 63.95 26.99 75.77 O.3 68 C468 0
8093 O3 64.22 28.82 74.5 O.3 68 C468 0
8094 C 62.67 28.88 72.33 C.3 68 C468 0
8095 H 62.01 29.47 71.99 H 68 C468 0
8096 H 63.23 29.35 72.93 H 68 C468 0
8097 H 63.19 28.53 71.62 H 68 C468 0
8098 C 58.91 29.52 75.5 C.3 68 C468 0
8099 C 59.88 30.33 74.9 C.3 68 C468 0
8100 H 58.34 30.06 76.05 H 68 C468 0
8101 H 60.47 30.67 75.57 H 68 C468 0
8102 H 59.46 31.06 74.46 H 68 C468 0
8103 C1 60.68 29.51 73.88 C.3 68 C468 0
8104 O2 60.88 29.96 72.75 O.3 68 C468 0
8105 O3 61.15 28.28 74.22 O.3 68 C468 0
8106 C 59.6 28.46 76.37 C.3 68 C468 0
8107 H 58.94 27.91 76.78 H 68 C468 0
8108 H 60.17 27.92 75.83 H 68 C468 0
8109 H 60.12 28.88 77.05 H 68 C468 0
8110 C 55.84 27.47 73.29 C.3 68 C468 0
8111 C 56.81 26.73 73.98 C.3 68 C468 0
8112 H 55.27 26.88 72.81 H 68 C468 0
8113 H 57.4 26.32 73.36 H 68 C468 0
8114 H 56.39 26.06 74.5 H 68 C468 0
8115 C1 57.61 27.66 74.91 C.3 68 C468 0
8116 O2 57.81 27.34 76.08 O.3 68 C468 0
8117 O3 58.09 28.85 74.43 O.3 68 C468 0
8118 C 56.53 28.43 72.31 C.3 68 C468 0
8119 H 55.87 28.94 71.85 H 68 C468 0
8120 H 57.1 29.02 72.79 H 68 C468 0
8121 H 57.05 27.94 71.69 H 68 C468 0
8122 C 52.77 29.76 75.26 C.3 68 C468 0
8123 C 53.74 30.42 74.5 C.3 68 C468 0
8124 H 52.21 30.4 75.68 H 68 C468 0
8125 H 54.33 30.89 75.07 H 68 C468 0
8126 H 53.32 31.03 73.91 H 68 C468 0
8127 C1 54.54 29.38 73.68 C.3 68 C468 0
8128 O2 54.75 29.57 72.48 O.3 68 C468 0
8129 O3 55.02 28.26 74.28 O.3 68 C468 0
8130 C 53.46 28.91 76.35 C.3 68 C468 0
8131 H 52.81 28.46 76.86 H 68 C468 0
8132 H 54.03 28.27 75.93 H 68 C468 0
8133 H 53.98 29.47 76.91 H 68 C468 0
8134 C 49.71 27.27 73.56 C.3 68 C468 0
8135 C 50.68 26.69 74.39 C.3 68 C468 0
8136 H 49.14 26.58 73.22 H 68 C468 0
8137 H 51.27 26.16 73.87 H 68 C468 0
8138 H 50.25 26.15 75.05 H 68 C468 0
8139 C1 51.47 27.81 75.09 C.3 68 C468 0
8140 O2 51.68 27.76 76.3 O.3 68 C468 0
8141 O3 51.95 28.86 74.37 O.3 68 C468 0
8142 C 50.4 27.99 72.39 C.3 68 C468 0
8143 H 49.74 28.38 71.82 H 68 C468 0
8144 H 50.96 28.67 72.73 H 68 C468 0
8145 H 50.91 27.37 71.89 H 68 C468 0
8146 C 46.64 29.93 74.98 C.3 68 C468 0
8147 C 47.61 30.41 74.09 C.3 68 C468 0
8148 H 46.07 30.65 75.24 H 68 C468 0
8149 H 48.2 30.99 74.54 H 68 C468 0
8150 H 47.19 30.87 73.38 H 68 C468 0
8151 C1 48.41 29.22 73.52 C.3 68 C468 0
8152 O2 48.61 29.14 72.31 O.3 68 C468 0
8153 O3 48.88 28.25 74.35 O.3 68 C468 0
8154 C 47.33 29.34 76.22 C.3 68 C468 0
8155 H 46.67 29.02 76.82 H 68 C468 0
8156 H 47.9 28.62 75.96 H 68 C468 0
8157 H 47.85 30.01 76.64 H 68 C468 0
8158 C 43.57 27.13 73.86 C.3 68 C468 0
8159 C 44.54 26.75 74.8 C.3 68 C468 0
8160 H 43.01 26.38 73.68 H 68 C468 0
8161 H 45.13 26.12 74.41 H 68 C468 0
8162 H 44.12 26.37 75.56 H 68 C468 0
8163 C1 45.34 28 75.24 C.3 68 C468 0
8164 O2 45.54 28.21 76.43 O.3 68 C468 0
8165 O3 45.82 28.86 74.3 O.3 68 C468 0
8166 C 44.26 27.58 72.56 C.3 68 C468 0
8167 H 43.6 27.83 71.93 H 68 C468 0
8168 H 44.83 28.32 72.74 H 68 C468 0
8169 H 44.78 26.86 72.21 H 68 C468 0
8170 C 40.5 30.04 74.66 C.3 68 C468 0
8171 C 41.47 30.3 73.69 C.3 68 C468 0
8172 H 39.94 30.79 74.76 H 68 C468 0
8173 H 42.06 30.98 74 H 68 C468 0
8174 H 41.05 30.6 72.89 H 68 C468 0
8175 C1 42.27 29.02 73.39 C.3 68 C468 0
8176 O2 42.48 28.68 72.23 O.3 68 C468 0
8177 O3 42.75 28.26 74.42 O.3 68 C468 0
8178 C 41.19 29.73 76 C.3 68 C468 0
8179 H 40.54 29.55 76.66 H 68 C468 0
8180 H 41.76 28.98 75.9 H 68 C468 0
8181 H 41.71 30.48 76.27 H 68 C468 0
8182 C 37.44 27.06 74.19 C.3 68 C468 0
8183 C 38.41 26.9 75.19 C.3 68 C468 0
8184 H 36.87 26.29 74.18 H 68 C468 0
8185 H 39 26.19 74.95 H 68 C468 0
8186 H 37.98 26.69 76.01 H 68 C468 0
8187 C1 39.2 28.21 75.34 C.3 68 C468 0
8188 O2 39.41 28.68 76.46 O.3 68 C468 0
8189 O3 39.68 28.85 74.24 O.3 68 C468 0
8190 C 38.13 27.21 72.82 C.3 68 C468 0
8191 H 37.47 27.32 72.15 H 68 C468 0
8192 H 38.69 27.97 72.84 H 68 C468 0
8193 H 38.64 26.43 72.64 H 68 C468 0
8194 C 34.37 30.07 74.33 C.3 68 C468 0
8195 C 35.34 30.12 73.32 C.3 68 C468 0
8196 H 33.8 30.83 74.26 H 68 C468 0
8197 H 35.93 30.84 73.48 H 68 C468 0
8198 H 34.91 30.23 72.48 H 68 C468 0
8199 C1 36.14 28.8 73.31 C.3 68 C468 0
8200 O2 36.34 28.21 72.25 O.3 68 C468 0
8201 O3 36.61 28.29 74.48 O.3 68 C468 0
8202 C 35.06 30.07 75.7 C.3 68 C468 0
8203 H 34.4 30.04 76.39 H 68 C468 0
8204 H 35.62 29.31 75.77 H 68 C468 0
8205 H 35.58 30.86 75.8 H 68 C468 0
8206 C 31.3 27.06 74.53 C.3 68 C468 0
8207 C 32.27 27.13 75.53 C.3 68 C468 0
8208 H 30.73 26.31 74.68 H 68 C468 0
8209 H 32.86 26.38 75.45 H 68 C468 0
8210 H 31.85 27.1 76.38 H 68 C468 0
8211 C1 33.07 28.44 75.39 C.3 68 C468 0
8212 O2 33.27 29.14 76.38 O.3 68 C468 0
8213 O3 33.54 28.81 74.18 O.3 68 C468 0
8214 C 31.99 26.91 73.16 C.3 68 C468 0
8215 H 31.33 26.86 72.47 H 68 C468 0
8216 H 32.56 27.66 73 H 68 C468 0
8217 H 32.51 26.11 73.15 H 68 C468 0
8218 C 28.23 30.03 74 C.3 68 C468 0
8219 C 29.2 29.86 73 C.3 68 C468 0
8220 H 27.67 30.76 73.76 H 68 C468 0
8221 H 29.79 30.6 73 H 68 C468 0
8222 H 28.78 29.78 72.16 H 68 C468 0
8223 C1 30 28.57 73.29 C.3 68 C468 0
8224 O2 30.21 27.76 72.38 O.3 68 C468 0
8225 O3 30.48 28.33 74.54 O.3 68 C468 0
8226 C 28.92 30.33 75.34 C.3 68 C468 0
8227 H 28.27 30.45 76.01 H 68 C468 0
8228 H 29.49 29.61 75.57 H 68 C468 0
8229 H 29.44 31.13 75.26 H 68 C468 0
8230 C 25.17 27.14 74.85 C.3 68 C468 0
8231 C 26.14 27.42 75.82 C.3 68 C468 0
8232 H 24.6 26.44 75.17 H 68 C468 0
8233 H 26.73 26.68 75.9 H 68 C468 0
8234 H 25.71 27.59 76.65 H 68 C468 0
8235 C1 26.93 28.67 75.39 C.3 68 C468 0
8236 O2 27.14 29.57 76.2 O.3 68 C468 0
8237 O3 27.41 28.77 74.13 O.3 68 C468 0
8238 C 25.86 26.69 73.55 C.3 68 C468 0
8239 H 25.2 26.5 72.89 H 68 C468 0
8240 H 26.42 27.38 73.24 H 68 C468 0
8241 H 26.37 25.91 73.72 H 68 C468 0
8242 C 22.1 29.92 73.68 C.3 68 C468 0
8243 C 23.07 29.53 72.75 C.3 68 C468 0
8244 H 21.53 30.58 73.29 H 68 C468 0
8245 H 23.66 30.25 72.58 H 68 C468 0
8246 H 22.64 29.27 71.94 H 68 C468 0
8247 C1 23.87 28.34 73.31 C.3 68 C468 0
8248 O2 24.07 27.35 72.61 O.3 68 C468 0
8249 O3 24.34 28.37 74.58 O.3 68 C468 0
8250 C 22.79 30.51 74.93 C.3 68 C468 0
8251 H 22.13 30.78 75.56 H 68 C468 0
8252 H 23.35 29.85 75.31 H 68 C468 0
8253 H 23.31 31.27 74.67 H 68 C468 0
8254 C 19.03 27.28 75.15 C.3 68 C468 0
8255 C 20 27.78 76.03 C.3 68 C468 0
8256 H 18.46 26.68 75.61 H 68 C468 0
8257 H 20.59 27.07 76.28 H 68 C468 0
8258 H 19.58 28.12 76.81 H 68 C468 0
8259 C1 20.8 28.9 75.34 C.3 68 C468 0
8260 O2 21 29.96 75.94 O.3 68 C468 0
8261 O3 21.27 28.72 74.08 O.3 68 C468 0
8262 C 19.72 26.56 73.98 C.3 68 C468 0
8263 H 19.06 26.23 73.38 H 68 C468 0
8264 H 20.29 27.17 73.52 H 68 C468 0
8265 H 20.24 25.84 74.32 H 68 C468 0
8266 C 15.96 29.74 73.4 C.3 68 C468 0
8267 C 16.93 29.16 72.58 C.3 68 C468 0
8268 H 15.4 30.3 72.88 H 68 C468 0
8269 H 17.52 29.83 72.26 H 68 C468 0
8270 H 16.51 28.73 71.84 H 68 C468 0
8271 C1 17.73 28.12 73.39 C.3 68 C468 0
8272 O2 17.94 27 72.92 O.3 68 C468 0
8273 O3 18.21 28.43 74.62 O.3 68 C468 0
8274 C 16.65 30.59 74.48 C.3 68 C468 0
8275 H 16 30.99 75.04 H 68 C468 0
8276 H 17.22 30.04 75.01 H 68 C468 0
8277 H 17.17 31.27 74.07 H 68 C468 0
8278 C 12.89 27.49 75.41 C.3 68 C468 0
8279 C 13.87 28.17 76.17 C.3 68 C468 0
8280 H 12.33 27 75.99 H 68 C468 0
8281 H 14.45 27.54 76.56 H 68 C468 0
8282 H 13.44 28.67 76.85 H 68 C468 0
8283 C1 14.66 29.11 75.25 C.3 68 C468 0
8284 O2 14.87 30.28 75.59 O.3 68 C468 0
8285 O3 15.14 28.66 74.06 O.3 68 C468 0
8286 C 13.59 26.53 74.43 C.3 68 C468 0
8287 H 12.93 26.07 73.92 H 68 C468 0
8288 H 14.15 27.02 73.85 H 68 C468 0
8289 H 14.1 25.9 74.92 H 68 C468 0
8290 C 9.83 29.51 73.16 C.3 68 C468 0
8291 C 10.8 28.75 72.49 C.3 68 C468 0
8292 H 9.26 29.93 72.53 H 68 C468 0
8293 H 11.39 29.34 72.03 H 68 C468 0
8294 H 10.37 28.17 71.87 H 68 C468 0
8295 C1 11.59 27.92 73.51 C.3 68 C468 0
8296 O2 11.8 26.72 73.29 O.3 68 C468 0
8297 O3 12.07 28.5 74.64 O.3 68 C468 0
8298 C 10.52 30.57 74.03 C.3 68 C468 0
8299 H 9.86 31.08 74.49 H 68 C468 0
8300 H 11.08 30.15 74.67 H 68 C468 0
8301 H 11.04 31.15 73.48 H 68 C468 0
8302 C 6.76 27.76 75.62 C.3 68 C468 0
8303 C 7.73 28.58 76.21 C.3 68 C468 0
8304 H 6.19 27.4 76.3 H 68 C468 0
8305 H 8.32 28.05 76.73 H 68 C468 0
8306 H 7.31 29.22 76.76 H 68 C468 0
8307 C1 8.53 29.3 75.1 C.3 68 C468 0
8308 O2 8.73 30.51 75.18 O.3 68 C468 0
8309 O3 9 28.6 74.04 O.3 68 C468 0
8310 C 7.45 26.6 74.87 C.3 68 C468 0
8311 H 6.79 26.04 74.48 H 68 C468 0
8312 H 8.02 26.95 74.2 H 68 C468 0
8313 H 7.97 26.09 75.49 H 68 C468 0
8314 H 3.17 28.79 73.65 H 69 C469 0
8315 C 3.69 29.22 72.98 C.3 69 C469 0
8316 C 4.66 28.34 72.49 C.3 69 C469 0
8317 H 3.13 29.5 72.27 H 69 C469 0
8318 H 5.25 28.81 71.92 H 69 C469 0
8319 H 4.24 27.64 72.01 H 69 C469 0
8320 C1 5.46 27.75 73.67 C.3 69 C469 0
8321 O2 5.67 26.54 73.73 O.3 69 C469 0
8322 O3 5.94 28.56 74.65 O.3 69 C469 0
8323 C 4.38 30.46 73.6 C.3 69 C469 0
8324 H 3.72 31.05 73.93 H 69 C469 0
8325 H 4.95 30.18 74.31 H 69 C469 0
8326 H 4.9 30.89 72.93 H 69 C469 0
8327 C 92.65 29.31 84.46 C.3 70 C470 0
8328 C 93.62 28.47 83.91 C.3 70 C470 0
8329 H 92.09 29.64 83.77 H 70 C470 0
8330 H 94.21 28.98 83.37 H 70 C470 0
8331 H 93.2 27.8 83.38 H 70 C470 0
8332 C1 94.42 27.79 85.04 C.3 70 C470 0
8333 O2 94.63 26.58 85.01 O.3 70 C470 0
8334 O3 94.9 28.53 86.07 O.3 70 C470 0
8335 H5 95.42 27.98 86.65 H 70 C470 0
8336 C 93.34 30.49 85.17 C.3 70 C470 0
8337 H 92.68 31.07 85.54 H 70 C470 0
8338 H 93.91 30.17 85.85 H 70 C470 0
8339 H 93.86 30.98 84.53 H 70 C470 0
8340 C 89.58 27.95 87.15 C.3 71 C471 0
8341 C 90.55 28.85 87.61 C.3 71 C471 0
8342 H 89.02 27.7 87.87 H 71 C471 0
8343 H 91.15 28.4 88.21 H 71 C471 0
8344 H 90.13 29.57 88.06 H 71 C471 0
8345 C1 91.35 29.39 86.41 C.3 71 C471 0
8346 O2 91.56 30.6 86.31 O.3 71 C471 0
8347 O3 91.83 28.54 85.47 O.3 71 C471 0
8348 C 90.28 26.69 86.59 C.3 71 C471 0
8349 H 89.62 26.08 86.28 H 71 C471 0
8350 H 90.84 26.94 85.87 H 71 C471 0
8351 H 90.79 26.28 87.27 H 71 C471 0
8352 C 86.52 29.01 84.33 C.3 71 C471 0
8353 C 87.49 28.06 83.97 C.3 71 C471 0
8354 H 85.95 29.17 83.58 H 71 C471 0
8355 H 88.08 28.44 83.33 H 71 C471 0
8356 H 87.06 27.3 83.6 H 71 C471 0
8357 C1 88.28 27.65 85.23 C.3 71 C471 0
8358 O2 88.49 26.46 85.46 O.3 71 C471 0
8359 O3 88.76 28.6 86.07 O.3 71 C471 0
8360 C 87.21 30.32 84.75 C.3 71 C471 0
8361 H 86.55 30.96 84.99 H 71 C471 0
8362 H 87.77 30.15 85.5 H 71 C471 0
8363 H 87.73 30.65 84.03 H 71 C471 0
8364 C 83.45 28.27 87.25 C.3 71 C471 0
8365 C 84.42 29.24 87.5 C.3 71 C471 0
8366 H 82.88 28.18 88.01 H 71 C471 0
8367 H 85.01 28.94 88.18 H 71 C471 0
8368 H 84 30.05 87.79 H 71 C471 0
8369 C1 85.22 29.52 86.21 C.3 71 C471 0
8370 O2 85.42 30.67 85.85 O.3 71 C471 0
8371 O3 85.69 28.48 85.48 O.3 71 C471 0
8372 C 84.14 26.92 86.98 C.3 71 C471 0
8373 H 83.48 26.25 86.81 H 71 C471 0
8374 H 84.71 27 86.22 H 71 C471 0
8375 H 84.66 26.67 87.73 H 71 C471 0
8376 C 80.38 28.68 84.26 C.3 71 C471 0
8377 C 81.35 27.68 84.13 C.3 71 C471 0
8378 H 79.82 28.68 83.5 H 71 C471 0
8379 H 81.94 27.91 83.42 H 71 C471 0
8380 H 80.93 26.85 83.93 H 71 C471 0
8381 C1 82.15 27.55 85.44 C.3 71 C471 0
8382 O2 82.36 26.44 85.93 O.3 71 C471 0
8383 O3 82.63 28.67 86.05 O.3 71 C471 0
8384 C 81.07 30.05 84.39 C.3 71 C471 0
8385 H 80.41 30.73 84.49 H 71 C471 0
8386 H 81.64 30.05 85.15 H 71 C471 0
8387 H 81.59 30.22 83.61 H 71 C471 0
8388 C 77.31 28.6 87.28 C.3 71 C471 0
8389 C 78.28 29.61 87.31 C.3 71 C471 0
8390 H 76.75 28.68 88.04 H 71 C471 0
8391 H 78.88 29.46 88.04 H 71 C471 0
8392 H 77.86 30.45 87.41 H 71 C471 0
8393 C1 79.08 29.59 85.99 C.3 71 C471 0
8394 O2 79.29 30.64 85.38 O.3 71 C471 0
8395 O3 79.56 28.41 85.5 O.3 71 C471 0
8396 C 78.01 27.22 87.31 C.3 71 C471 0
8397 H 77.35 26.54 87.29 H 71 C471 0
8398 H 78.57 27.14 86.55 H 71 C471 0
8399 H 78.52 27.14 88.1 H 71 C471 0
8400 C 74.25 28.35 84.27 C.3 71 C471 0
8401 C 75.22 27.34 84.36 C.3 71 C471 0
8402 H 73.68 28.18 83.53 H 71 C471 0
8403 H 75.81 27.4 83.62 H 71 C471 0
8404 H 74.79 26.49 84.35 H 71 C471 0
8405 C1 76.01 27.5 85.67 C.3 71 C471 0
8406 O2 76.22 26.53 86.39 O.3 71 C471 0
8407 O3 76.49 28.73 86.02 O.3 71 C471 0
8408 C 74.94 29.71 84.1 C.3 71 C471 0
8409 H 74.28 30.39 84.04 H 71 C471 0
8410 H 75.5 29.88 84.84 H 71 C471 0
8411 H 75.46 29.7 83.3 H 71 C471 0
8412 C 71.18 28.93 87.24 C.3 71 C471 0
8413 C 72.15 29.92 87.04 C.3 71 C471 0
8414 H 70.61 29.18 87.96 H 71 C471 0
8415 H 72.74 29.94 87.78 H 71 C471 0
8416 H 71.73 30.77 86.95 H 71 C471 0
8417 C1 72.95 29.61 85.76 C.3 71 C471 0
8418 O2 73.15 30.5 84.93 O.3 71 C471 0
8419 O3 73.42 28.36 85.54 O.3 71 C471 0
8420 C 71.87 27.59 87.56 C.3 71 C471 0
8421 H 71.21 26.92 87.7 H 71 C471 0
8422 H 72.44 27.35 86.84 H 71 C471 0
8423 H 72.39 27.69 88.35 H 71 C471 0
8424 C 68.11 28.02 84.36 C.3 71 C471 0
8425 C 69.08 27.06 84.66 C.3 71 C471 0
8426 H 67.55 27.69 83.67 H 71 C471 0
8427 H 69.67 26.96 83.92 H 71 C471 0
8428 H 68.66 26.23 84.84 H 71 C471 0
8429 C1 69.88 27.51 85.9 C.3 71 C471 0
8430 O2 70.09 26.72 86.82 O.3 71 C471 0
8431 O3 70.36 28.78 85.98 O.3 71 C471 0
8432 C 68.8 29.31 83.88 C.3 71 C471 0
8433 H 68.14 29.97 83.68 H 71 C471 0
8434 H 69.37 29.64 84.57 H 71 C471 0
8435 H 69.32 29.13 83.11 H 71 C471 0
8436 C 65.04 29.24 87.12 C.3 71 C471 0
8437 C 66.01 30.17 86.71 C.3 71 C471 0
8438 H 64.48 29.65 87.77 H 71 C471 0
8439 H 66.6 30.35 87.43 H 71 C471 0
8440 H 65.59 30.97 86.44 H 71 C471 0
8441 C1 66.81 29.59 85.53 C.3 71 C471 0
8442 O2 67.02 30.27 84.53 O.3 71 C471 0
8443 O3 67.29 28.31 85.59 O.3 71 C471 0
8444 C 65.74 28.01 87.73 C.3 71 C471 0
8445 H 65.08 27.39 88.01 H 71 C471 0
8446 H 66.3 27.61 87.08 H 71 C471 0
8447 H 66.25 28.28 88.48 H 71 C471 0
8448 C 61.98 27.73 84.51 C.3 71 C471 0
8449 C 62.95 26.85 85.02 C.3 71 C471 0
8450 H 61.41 27.25 83.91 H 71 C471 0
8451 H 63.54 26.59 84.32 H 71 C471 0
8452 H 62.52 26.08 85.38 H 71 C471 0
8453 C1 63.74 27.56 86.13 C.3 71 C471 0
8454 O2 63.95 26.99 87.2 O.3 71 C471 0
8455 O3 64.22 28.82 85.93 O.3 71 C471 0
8456 C 62.67 28.88 83.76 C.3 71 C471 0
8457 H 62.01 29.47 83.42 H 71 C471 0
8458 H 63.23 29.35 84.36 H 71 C471 0
8459 H 63.19 28.53 83.05 H 71 C471 0
8460 C 58.91 29.52 86.93 C.3 71 C471 0
8461 C 59.88 30.33 86.33 C.3 71 C471 0
8462 H 58.34 30.06 87.48 H 71 C471 0
8463 H 60.47 30.67 87 H 71 C471 0
8464 H 59.46 31.06 85.89 H 71 C471 0
8465 C1 60.68 29.51 85.31 C.3 71 C471 0
8466 O2 60.88 29.96 84.18 O.3 71 C471 0
8467 O3 61.15 28.28 85.65 O.3 71 C471 0
8468 C 59.6 28.46 87.8 C.3 71 C471 0
8469 H 58.94 27.91 88.21 H 71 C471 0
8470 H 60.17 27.92 87.26 H 71 C471 0
8471 H 60.12 28.88 88.48 H 71 C471 0
8472 C 55.84 27.47 84.72 C.3 71 C471 0
8473 C 56.81 26.73 85.41 C.3 71 C471 0
8474 H 55.27 26.88 84.24 H 71 C471 0
8475 H 57.4 26.32 84.79 H 71 C471 0
8476 H 56.39 26.06 85.93 H 71 C471 0
8477 C1 57.61 27.66 86.34 C.3 71 C471 0
8478 O2 57.81 27.34 87.51 O.3 71 C471 0
8479 O3 58.09 28.85 85.86 O.3 71 C471 0
8480 C 56.53 28.43 83.74 C.3 71 C471 0
8481 H 55.87 28.94 83.28 H 71 C471 0
8482 H 57.1 29.02 84.22 H 71 C471 0
8483 H 57.05 27.94 83.12 H 71 C471 0
8484 C 52.77 29.76 86.69 C.3 71 C471 0
8485 C 53.74 30.42 85.93 C.3 71 C471 0
8486 H 52.21 30.4 87.11 H 71 C471 0
8487 H 54.33 30.89 86.5 H 71 C471 0
8488 H 53.32 31.03 85.34 H 71 C471 0
8489 C1 54.54 29.38 85.11 C.3 71 C471 0
8490 O2 54.75 29.57 83.91 O.3 71 C471 0
8491 O3 55.02 28.26 85.71 O.3 71 C471 0
8492 C 53.46 28.91 87.78 C.3 71 C471 0
8493 H 52.81 28.46 88.29 H 71 C471 0
8494 H 54.03 28.27 87.36 H 71 C471 0
8495 H 53.98 29.47 88.34 H 71 C471 0
8496 C 49.71 27.27 84.99 C.3 71 C471 0
8497 C 50.68 26.69 85.82 C.3 71 C471 0
8498 H 49.14 26.58 84.65 H 71 C471 0
8499 H 51.27 26.16 85.3 H 71 C471 0
8500 H 50.25 26.15 86.48 H 71 C471 0
8501 C1 51.47 27.81 86.52 C.3 71 C471 0
8502 O2 51.68 27.76 87.73 O.3 71 C471 0
8503 O3 51.95 28.86 85.8 O.3 71 C471 0
8504 C 50.4 27.99 83.82 C.3 71 C471 0
8505 H 49.74 28.38 83.25 H 71 C471 0
8506 H 50.96 28.67 84.16 H 71 C471 0
8507 H 50.91 27.37 83.32 H 71 C471 0
8508 C 46.64 29.93 86.41 C.3 71 C471 0
8509 C 47.61 30.41 85.52 C.3 71 C471 0
8510 H 46.07 30.65 86.67 H 71 C471 0
8511 H 48.2 30.99 85.97 H 71 C471 0
8512 H 47.19 30.87 84.81 H 71 C471 0
8513 C1 48.41 29.22 84.95 C.3 71 C471 0
8514 O2 48.61 29.14 83.74 O.3 71 C471 0
8515 O3 48.88 28.25 85.78 O.3 71 C471 0
8516 C 47.33 29.34 87.65 C.3 71 C471 0
8517 H 46.67 29.02 88.25 H 71 C471 0
8518 H 47.9 28.62 87.39 H 71 C471 0
8519 H 47.85 30.01 88.07 H 71 C471 0
8520 C 43.57 27.13 85.29 C.3 71 C471 0
8521 C 44.54 26.75 86.23 C.3 71 C471 0
8522 H 43.01 26.38 85.11 H 71 C471 0
8523 H 45.13 26.12 85.84 H 71 C471 0
8524 H 44.12 26.37 86.99 H 71 C471 0
8525 C1 45.34 28 86.67 C.3 71 C471 0
8526 O2 45.54 28.21 87.86 O.3 71 C471 0
8527 O3 45.82 28.86 85.73 O.3 71 C471 0
8528 C 44.26 27.58 83.99 C.3 71 C471 0
8529 H 43.6 27.83 83.36 H 71 C471 0
8530 H 44.83 28.32 84.17 H 71 C471 0
8531 H 44.78 26.86 83.64 H 71 C471 0
8532 C 40.5 30.04 86.09 C.3 71 C471 0
8533 C 41.47 30.3 85.12 C.3 71 C471 0
8534 H 39.94 30.79 86.19 H 71 C471 0
8535 H 42.06 30.98 85.43 H 71 C471 0
8536 H 41.05 30.6 84.32 H 71 C471 0
8537 C1 42.27 29.02 84.82 C.3 71 C471 0
8538 O2 42.48 28.68 83.66 O.3 71 C471 0
8539 O3 42.75 28.26 85.85 O.3 71 C471 0
8540 C 41.19 29.73 87.43 C.3 71 C471 0
8541 H 40.54 29.55 88.09 H 71 C471 0
8542 H 41.76 28.98 87.33 H 71 C471 0
8543 H 41.71 30.48 87.7 H 71 C471 0
8544 C 37.44 27.06 85.62 C.3 71 C471 0
8545 C 38.41 26.9 86.62 C.3 71 C471 0
8546 H 36.87 26.29 85.61 H 71 C471 0
8547 H 39 26.19 86.38 H 71 C471 0
8548 H 37.98 26.69 87.44 H 71 C471 0
8549 C1 39.2 28.21 86.77 C.3 71 C471 0
8550 O2 39.41 28.68 87.89 O.3 71 C471 0
8551 O3 39.68 28.85 85.67 O.3 71 C471 0
8552 C 38.13 27.21 84.25 C.3 71 C471 0
8553 H 37.47 27.32 83.58 H 71 C471 0
8554 H 38.69 27.97 84.27 H 71 C471 0
8555 H 38.64 26.43 84.07 H 71 C471 0
8556 C 34.37 30.07 85.76 C.3 71 C471 0
8557 C 35.34 30.12 84.75 C.3 71 C471 0
8558 H 33.8 30.83 85.69 H 71 C471 0
8559 H 35.93 30.84 84.91 H 71 C471 0
8560 H 34.91 30.23 83.91 H 71 C471 0
8561 C1 36.14 28.8 84.74 C.3 71 C471 0
8562 O2 36.34 28.21 83.68 O.3 71 C471 0
8563 O3 36.61 28.29 85.91 O.3 71 C471 0
8564 C 35.06 30.07 87.13 C.3 71 C471 0
8565 H 34.4 30.04 87.82 H 71 C471 0
8566 H 35.62 29.31 87.2 H 71 C471 0
8567 H 35.58 30.86 87.23 H 71 C471 0
8568 C 31.3 27.06 85.96 C.3 71 C471 0
8569 C 32.27 27.13 86.96 C.3 71 C471 0
8570 H 30.73 26.31 86.11 H 71 C471 0
8571 H 32.86 26.38 86.88 H 71 C471 0
8572 H 31.85 27.1 87.81 H 71 C471 0
8573 C1 33.07 28.44 86.82 C.3 71 C471 0
8574 O2 33.27 29.14 87.81 O.3 71 C471 0
8575 O3 33.54 28.81 85.61 O.3 71 C471 0
8576 C 31.99 26.91 84.59 C.3 71 C471 0
8577 H 31.33 26.86 83.9 H 71 C471 0
8578 H 32.56 27.66 84.43 H 71 C471 0
8579 H 32.51 26.11 84.58 H 71 C471 0
8580 C 28.23 30.03 85.43 C.3 71 C471 0
8581 C 29.2 29.86 84.43 C.3 71 C471 0
8582 H 27.67 30.76 85.19 H 71 C471 0
8583 H 29.79 30.6 84.43 H 71 C471 0
8584 H 28.78 29.78 83.59 H 71 C471 0
8585 C1 30 28.57 84.72 C.3 71 C471 0
8586 O2 30.21 27.76 83.81 O.3 71 C471 0
8587 O3 30.48 28.33 85.97 O.3 71 C471 0
8588 C 28.92 30.33 86.77 C.3 71 C471 0
8589 H 28.27 30.45 87.44 H 71 C471 0
8590 H 29.49 29.61 87 H 71 C471 0
8591 H 29.44 31.13 86.69 H 71 C471 0
8592 C 25.17 27.14 86.28 C.3 71 C471 0
8593 C 26.14 27.42 87.25 C.3 71 C471 0
8594 H 24.6 26.44 86.6 H 71 C471 0
8595 H 26.73 26.68 87.33 H 71 C471 0
8596 H 25.71 27.59 88.08 H 71 C471 0
8597 C1 26.93 28.67 86.82 C.3 71 C471 0
8598 O2 27.14 29.57 87.63 O.3 71 C471 0
8599 O3 27.41 28.77 85.56 O.3 71 C471 0
8600 C 25.86 26.69 84.98 C.3 71 C471 0
8601 H 25.2 26.5 84.32 H 71 C471 0
8602 H 26.42 27.38 84.67 H 71 C471 0
8603 H 26.37 25.91 85.15 H 71 C471 0
8604 C 22.1 29.92 85.11 C.3 71 C471 0
8605 C 23.07 29.53 84.18 C.3 71 C471 0
8606 H 21.53 30.58 84.72 H 71 C471 0
8607 H 23.66 30.25 84.01 H 71 C471 0
8608 H 22.64 29.27 83.37 H 71 C471 0
8609 C1 23.87 28.34 84.74 C.3 71 C471 0
8610 O2 24.07 27.35 84.04 O.3 71 C471 0
8611 O3 24.34 28.37 86.01 O.3 71 C471 0
8612 C 22.79 30.51 86.36 C.3 71 C471 0
8613 H 22.13 30.78 86.99 H 71 C471 0
8614 H 23.35 29.85 86.74 H 71 C471 0
8615 H 23.31 31.27 86.1 H 71 C471 0
8616 C 19.03 27.28 86.58 C.3 71 C471 0
8617 C 20 27.78 87.46 C.3 71 C471 0
8618 H 18.46 26.68 87.04 H 71 C471 0
8619 H 20.59 27.07 87.71 H 71 C471 0
8620 H 19.58 28.12 88.24 H 71 C471 0
8621 C1 20.8 28.9 86.77 C.3 71 C471 0
8622 O2 21 29.96 87.37 O.3 71 C471 0
8623 O3 21.27 28.72 85.51 O.3 71 C471 0
8624 C 19.72 26.56 85.41 C.3 71 C471 0
8625 H 19.06 26.23 84.81 H 71 C471 0
8626 H 20.29 27.17 84.95 H 71 C471 0
8627 H 20.24 25.84 85.75 H 71 C471 0
8628 C 15.96 29.74 84.83 C.3 71 C471 0
8629 C 16.93 29.16 84.01 C.3 71 C471 0
8630 H 15.4 30.3 84.31 H 71 C471 0
8631 H 17.52 29.83 83.69 H 71 C471 0
8632 H 16.51 28.73 83.27 H 71 C471 0
8633 C1 17.73 28.12 84.82 C.3 71 C471 0
8634 O2 17.94 27 84.35 O.3 71 C471 0
8635 O3 18.21 28.43 86.05 O.3 71 C471 0
8636 C 16.65 30.59 85.91 C.3 71 C471 0
8637 H 16 30.99 86.47 H 71 C471 0
8638 H 17.22 30.04 86.44 H 71 C471 0
8639 H 17.17 31.27 85.5 H 71 C471 0
8640 C 12.89 27.49 86.84 C.3 71 C471 0
8641 C 13.87 28.17 87.6 C.3 71 C471 0
8642 H 12.33 27 87.42 H 71 C471 0
8643 H 14.45 27.54 87.99 H 71 C471 0
8644 H 13.44 28.67 88.28 H 71 C471 0
8645 C1 14.66 29.11 86.68 C.3 71 C471 0
8646 O2 14.87 30.28 87.02 O.3 71 C471 0
8647 O3 15.14 28.66 85.49 O.3 71 C471 0
8648 C 13.59 26.53 85.86 C.3 71 C471 0
8649 H 12.93 26.07 85.35 H 71 C471 0
8650 H 14.15 27.02 85.28 H 71 C471 0
8651 H 14.1 25.9 86.35 H 71 C471 0
8652 C 9.83 29.51 84.59 C.3 71 C471 0
8653 C 10.8 28.75 83.92 C.3 71 C471 0
8654 H 9.26 29.93 83.96 H 71 C471 0
8655 H 11.39 29.34 83.46 H 71 C471 0
8656 H 10.37 28.17 83.3 H 71 C471 0
8657 C1 11.59 27.92 84.94 C.3 71 C471 0
8658 O2 11.8 26.72 84.72 O.3 71 C471 0
8659 O3 12.07 28.5 86.07 O.3 71 C471 0
8660 C 10.52 30.57 85.46 C.3 71 C471 0
8661 H 9.86 31.08 85.92 H 71 C471 0
8662 H 11.08 30.15 86.1 H 71 C471 0
8663 H 11.04 31.15 84.91 H 71 C471 0
8664 C 6.76 27.76 87.05 C.3 71 C471 0
8665 C 7.73 28.58 87.64 C.3 71 C471 0
8666 H 6.19 27.4 87.73 H 71 C471 0
8667 H 8.32 28.05 88.16 H 71 C471 0
8668 H 7.31 29.22 88.19 H 71 C471 0
8669 C1 8.53 29.3 86.53 C.3 71 C471 0
8670 O2 8.73 30.51 86.61 O.3 71 C471 0
8671 O3 9 28.6 85.47 O.3 71 C471 0
8672 C 7.45 26.6 86.3 C.3 71 C471 0
8673 H 6.79 26.04 85.91 H 71 C471 0
8674 H 8.02 26.95 85.63 H 71 C471 0
8675 H 7.97 26.09 86.92 H 71 C471 0
8676 H 3.17 28.79 85.08 H 72 C472 0
8677 C 3.69 29.22 84.41 C.3 72 C472 0
8678 C 4.66 28.34 83.92 C.3 72 C472 0
8679 H 3.13 29.5 83.7 H 72 C472 0
8680 H 5.25 28.81 83.35 H 72 C472 0
8681 H 4.24 27.64 83.44 H 72 C472 0
8682 C1 5.46 27.75 85.1 C.3 72 C472 0
8683 O2 5.67 26.54 85.16 O.3 72 C472 0
8684 O3 5.94 28.56 86.08 O.3 72 C472 0
8685 C 4.38 30.46 85.03 C.3 72 C472 0
8686 H 3.72 31.05 85.36 H 72 C472 0
8687 H 4.95 30.18 85.74 H 72 C472 0
8688 H 4.9 30.89 84.36 H 72 C472 0
8689 C 92.65 40.75 4.44 C.3 73 C473 0
8690 C 93.62 39.91 3.89 C.3 73 C473 0
8691 H 92.09 41.08 3.75 H 73 C473 0
8692 H 94.21 40.42 3.35 H 73 C473 0
8693 H 93.2 39.24 3.36 H 73 C473 0
8694 C1 94.42 39.23 5.02 C.3 73 C473 0
8695 O2 94.63 38.02 4.99 O.3 73 C473 0
8696 O3 94.9 39.97 6.05 O.3 73 C473 0
8697 H5 95.42 39.42 6.63 H 73 C473 0
8698 C 93.34 41.93 5.15 C.3 73 C473 0
8699 H 92.68 42.51 5.52 H 73 C473 0
8700 H 93.91 41.61 5.83 H 73 C473 0
8701 H 93.86 42.42 4.51 H 73 C473 0
8702 C 89.58 39.39 7.13 C.3 74 C474 0
8703 C 90.55 40.29 7.59 C.3 74 C474 0
8704 H 89.02 39.14 7.85 H 74 C474 0
8705 H 91.15 39.84 8.19 H 74 C474 0
8706 H 90.13 41.01 8.04 H 74 C474 0
8707 C1 91.35 40.83 6.39 C.3 74 C474 0
8708 O2 91.56 42.04 6.29 O.3 74 C474 0
8709 O3 91.83 39.98 5.45 O.3 74 C474 0
8710 C 90.28 38.13 6.57 C.3 74 C474 0
8711 H 89.62 37.52 6.26 H 74 C474 0
8712 H 90.84 38.38 5.85 H 74 C474 0
8713 H 90.79 37.72 7.25 H 74 C474 0
8714 C 86.52 40.45 4.31 C.3 74 C474 0
8715 C 87.49 39.5 3.95 C.3 74 C474 0
8716 H 85.95 40.61 3.56 H 74 C474 0
8717 H 88.08 39.88 3.31 H 74 C474 0
8718 H 87.06 38.74 3.58 H 74 C474 0
8719 C1 88.28 39.09 5.21 C.3 74 C474 0
8720 O2 88.49 37.9 5.44 O.3 74 C474 0
8721 O3 88.76 40.04 6.05 O.3 74 C474 0
8722 C 87.21 41.76 4.73 C.3 74 C474 0
8723 H 86.55 42.4 4.97 H 74 C474 0
8724 H 87.77 41.59 5.48 H 74 C474 0
8725 H 87.73 42.09 4.01 H 74 C474 0
8726 C 83.45 39.71 7.23 C.3 74 C474 0
8727 C 84.42 40.68 7.48 C.3 74 C474 0
8728 H 82.88 39.62 7.99 H 74 C474 0
8729 H 85.01 40.38 8.16 H 74 C474 0
8730 H 84 41.49 7.77 H 74 C474 0
8731 C1 85.22 40.96 6.19 C.3 74 C474 0
8732 O2 85.42 42.11 5.83 O.3 74 C474 0
8733 O3 85.69 39.92 5.46 O.3 74 C474 0
8734 C 84.14 38.36 6.96 C.3 74 C474 0
8735 H 83.48 37.69 6.79 H 74 C474 0
8736 H 84.71 38.44 6.2 H 74 C474 0
8737 H 84.66 38.11 7.71 H 74 C474 0
8738 C 80.38 40.12 4.24 C.3 74 C474 0
8739 C 81.35 39.12 4.11 C.3 74 C474 0
8740 H 79.82 40.12 3.48 H 74 C474 0
8741 H 81.94 39.35 3.4 H 74 C474 0
8742 H 80.93 38.29 3.91 H 74 C474 0
8743 C1 82.15 38.99 5.42 C.3 74 C474 0
8744 O2 82.36 37.88 5.91 O.3 74 C474 0
8745 O3 82.63 40.11 6.03 O.3 74 C474 0
8746 C 81.07 41.49 4.37 C.3 74 C474 0
8747 H 80.41 42.17 4.47 H 74 C474 0
8748 H 81.64 41.49 5.13 H 74 C474 0
8749 H 81.59 41.66 3.59 H 74 C474 0
8750 C 77.31 40.04 7.26 C.3 74 C474 0
8751 C 78.28 41.05 7.29 C.3 74 C474 0
8752 H 76.75 40.12 8.02 H 74 C474 0
8753 H 78.88 40.9 8.02 H 74 C474 0
8754 H 77.86 41.89 7.39 H 74 C474 0
8755 C1 79.08 41.03 5.97 C.3 74 C474 0
8756 O2 79.29 42.08 5.36 O.3 74 C474 0
8757 O3 79.56 39.85 5.48 O.3 74 C474 0
8758 C 78.01 38.66 7.29 C.3 74 C474 0
8759 H 77.35 37.98 7.27 H 74 C474 0
8760 H 78.57 38.58 6.53 H 74 C474 0
8761 H 78.52 38.58 8.08 H 74 C474 0
8762 C 74.25 39.79 4.25 C.3 74 C474 0
8763 C 75.22 38.78 4.34 C.3 74 C474 0
8764 H 73.68 39.62 3.51 H 74 C474 0
8765 H 75.81 38.84 3.6 H 74 C474 0
8766 H 74.79 37.93 4.33 H 74 C474 0
8767 C1 76.01 38.94 5.65 C.3 74 C474 0
8768 O2 76.22 37.97 6.37 O.3 74 C474 0
8769 O3 76.49 40.17 6 O.3 74 C474 0
8770 C 74.94 41.15 4.08 C.3 74 C474 0
8771 H 74.28 41.83 4.02 H 74 C474 0
8772 H 75.5 41.32 4.82 H 74 C474 0
8773 H 75.46 41.14 3.28 H 74 C474 0
8774 C 71.18 40.37 7.22 C.3 74 C474 0
8775 C 72.15 41.36 7.02 C.3 74 C474 0
8776 H 70.61 40.62 7.94 H 74 C474 0
8777 H 72.74 41.38 7.76 H 74 C474 0
8778 H 71.73 42.21 6.93 H 74 C474 0
8779 C1 72.95 41.05 5.74 C.3 74 C474 0
8780 O2 73.15 41.94 4.91 O.3 74 C474 0
8781 O3 73.42 39.8 5.52 O.3 74 C474 0
8782 C 71.87 39.03 7.54 C.3 74 C474 0
8783 H 71.21 38.36 7.68 H 74 C474 0
8784 H 72.44 38.79 6.82 H 74 C474 0
8785 H 72.39 39.13 8.33 H 74 C474 0
8786 C 68.11 39.46 4.34 C.3 74 C474 0
8787 C 69.08 38.5 4.64 C.3 74 C474 0
8788 H 67.55 39.13 3.65 H 74 C474 0
8789 H 69.67 38.4 3.9 H 74 C474 0
8790 H 68.66 37.67 4.82 H 74 C474 0
8791 C1 69.88 38.95 5.88 C.3 74 C474 0
8792 O2 70.09 38.16 6.8 O.3 74 C474 0
8793 O3 70.36 40.22 5.96 O.3 74 C474 0
8794 C 68.8 40.75 3.86 C.3 74 C474 0
8795 H 68.14 41.41 3.66 H 74 C474 0
8796 H 69.37 41.08 4.55 H 74 C474 0
8797 H 69.32 40.57 3.09 H 74 C474 0
8798 C 65.04 40.68 7.1 C.3 74 C474 0
8799 C 66.01 41.61 6.69 C.3 74 C474 0
8800 H 64.48 41.09 7.75 H 74 C474 0
8801 H 66.6 41.79 7.41 H 74 C474 0
8802 H 65.59 42.41 6.42 H 74 C474 0
8803 C1 66.81 41.03 5.51 C.3 74 C474 0
8804 O2 67.02 41.71 4.51 O.3 74 C474 0
8805 O3 67.29 39.75 5.57 O.3 74 C474 0
8806 C 65.74 39.45 7.71 C.3 74 C474 0
8807 H 65.08 38.83 7.99 H 74 C474 0
8808 H 66.3 39.05 7.06 H 74 C474 0
8809 H 66.25 39.72 8.46 H 74 C474 0
8810 C 61.98 39.17 4.49 C.3 74 C474 0
8811 C 62.95 38.29 5 C.3 74 C474 0
8812 H 61.41 38.69 3.89 H 74 C474 0
8813 H 63.54 38.03 4.3 H 74 C474 0
8814 H 62.52 37.52 5.36 H 74 C474 0
8815 C1 63.74 39 6.11 C.3 74 C474 0
8816 O2 63.95 38.43 7.18 O.3 74 C474 0
8817 O3 64.22 40.26 5.91 O.3 74 C474 0
8818 C 62.67 40.32 3.74 C.3 74 C474 0
8819 H 62.01 40.91 3.4 H 74 C474 0
8820 H 63.23 40.79 4.34 H 74 C474 0
8821 H 63.19 39.97 3.03 H 74 C474 0
8822 C 58.91 40.96 6.91 C.3 74 C474 0
8823 C 59.88 41.77 6.31 C.3 74 C474 0
8824 H 58.34 41.5 7.46 H 74 C474 0
8825 H 60.47 42.11 6.98 H 74 C474 0
8826 H 59.46 42.5 5.87 H 74 C474 0
8827 C1 60.68 40.95 5.29 C.3 74 C474 0
8828 O2 60.88 41.4 4.16 O.3 74 C474 0
8829 O3 61.15 39.72 5.63 O.3 74 C474 0
8830 C 59.6 39.9 7.78 C.3 74 C474 0
8831 H 58.94 39.35 8.19 H 74 C474 0
8832 H 60.17 39.36 7.24 H 74 C474 0
8833 H 60.12 40.32 8.46 H 74 C474 0
8834 C 55.84 38.91 4.7 C.3 74 C474 0
8835 C 56.81 38.17 5.39 C.3 74 C474 0
8836 H 55.27 38.32 4.22 H 74 C474 0
8837 H 57.4 37.76 4.77 H 74 C474 0
8838 H 56.39 37.5 5.91 H 74 C474 0
8839 C1 57.61 39.1 6.32 C.3 74 C474 0
8840 O2 57.81 38.78 7.49 O.3 74 C474 0
8841 O3 58.09 40.29 5.84 O.3 74 C474 0
8842 C 56.53 39.87 3.72 C.3 74 C474 0
8843 H 55.87 40.38 3.26 H 74 C474 0
8844 H 57.1 40.46 4.2 H 74 C474 0
8845 H 57.05 39.38 3.1 H 74 C474 0
8846 C 52.77 41.2 6.67 C.3 74 C474 0
8847 C 53.74 41.86 5.91 C.3 74 C474 0
8848 H 52.21 41.84 7.09 H 74 C474 0
8849 H 54.33 42.33 6.48 H 74 C474 0
8850 H 53.32 42.47 5.32 H 74 C474 0
8851 C1 54.54 40.82 5.09 C.3 74 C474 0
8852 O2 54.75 41.01 3.89 O.3 74 C474 0
8853 O3 55.02 39.7 5.69 O.3 74 C474 0
8854 C 53.46 40.35 7.76 C.3 74 C474 0
8855 H 52.81 39.9 8.27 H 74 C474 0
8856 H 54.03 39.71 7.34 H 74 C474 0
8857 H 53.98 40.91 8.32 H 74 C474 0
8858 C 49.71 38.71 4.97 C.3 74 C474 0
8859 C 50.68 38.13 5.8 C.3 74 C474 0
8860 H 49.14 38.02 4.63 H 74 C474 0
8861 H 51.27 37.6 5.28 H 74 C474 0
8862 H 50.25 37.59 6.46 H 74 C474 0
8863 C1 51.47 39.25 6.5 C.3 74 C474 0
8864 O2 51.68 39.2 7.71 O.3 74 C474 0
8865 O3 51.95 40.3 5.78 O.3 74 C474 0
8866 C 50.4 39.43 3.8 C.3 74 C474 0
8867 H 49.74 39.82 3.23 H 74 C474 0
8868 H 50.96 40.11 4.14 H 74 C474 0
8869 H 50.91 38.81 3.3 H 74 C474 0
8870 C 46.64 41.37 6.39 C.3 74 C474 0
8871 C 47.61 41.85 5.5 C.3 74 C474 0
8872 H 46.07 42.09 6.65 H 74 C474 0
8873 H 48.2 42.43 5.95 H 74 C474 0
8874 H 47.19 42.31 4.79 H 74 C474 0
8875 C1 48.41 40.66 4.93 C.3 74 C474 0
8876 O2 48.61 40.58 3.72 O.3 74 C474 0
8877 O3 48.88 39.69 5.76 O.3 74 C474 0
8878 C 47.33 40.78 7.63 C.3 74 C474 0
8879 H 46.67 40.46 8.23 H 74 C474 0
8880 H 47.9 40.06 7.37 H 74 C474 0
8881 H 47.85 41.45 8.05 H 74 C474 0
8882 C 43.57 38.57 5.27 C.3 74 C474 0
8883 C 44.54 38.19 6.21 C.3 74 C474 0
8884 H 43.01 37.82 5.09 H 74 C474 0
8885 H 45.13 37.56 5.82 H 74 C474 0
8886 H 44.12 37.81 6.97 H 74 C474 0
8887 C1 45.34 39.44 6.65 C.3 74 C474 0
8888 O2 45.54 39.65 7.84 O.3 74 C474 0
8889 O3 45.82 40.3 5.71 O.3 74 C474 0
8890 C 44.26 39.02 3.97 C.3 74 C474 0
8891 H 43.6 39.27 3.34 H 74 C474 0
8892 H 44.83 39.76 4.15 H 74 C474 0
8893 H 44.78 38.3 3.62 H 74 C474 0
8894 C 40.5 41.48 6.07 C.3 74 C474 0
8895 C 41.47 41.74 5.1 C.3 74 C474 0
8896 H 39.94 42.23 6.17 H 74 C474 0
8897 H 42.06 42.42 5.41 H 74 C474 0
8898 H 41.05 42.04 4.3 H 74 C474 0
8899 C1 42.27 40.46 4.8 C.3 74 C474 0
8900 O2 42.48 40.12 3.64 O.3 74 C474 0
8901 O3 42.75 39.7 5.83 O.3 74 C474 0
8902 C 41.19 41.17 7.41 C.3 74 C474 0
8903 H 40.54 40.99 8.07 H 74 C474 0
8904 H 41.76 40.42 7.31 H 74 C474 0
8905 H 41.71 41.92 7.68 H 74 C474 0
8906 C 37.44 38.5 5.6 C.3 74 C474 0
8907 C 38.41 38.34 6.6 C.3 74 C474 0
8908 H 36.87 37.73 5.59 H 74 C474 0
8909 H 39 37.63 6.36 H 74 C474 0
8910 H 37.98 38.13 7.42 H 74 C474 0
8911 C1 39.2 39.65 6.75 C.3 74 C474 0
8912 O2 39.41 40.12 7.87 O.3 74 C474 0
8913 O3 39.68 40.29 5.65 O.3 74 C474 0
8914 C 38.13 38.65 4.23 C.3 74 C474 0
8915 H 37.47 38.76 3.56 H 74 C474 0
8916 H 38.69 39.41 4.25 H 74 C474 0
8917 H 38.64 37.87 4.05 H 74 C474 0
8918 C 34.37 41.51 5.74 C.3 74 C474 0
8919 C 35.34 41.56 4.73 C.3 74 C474 0
8920 H 33.8 42.27 5.67 H 74 C474 0
8921 H 35.93 42.28 4.89 H 74 C474 0
8922 H 34.91 41.67 3.89 H 74 C474 0
8923 C1 36.14 40.24 4.72 C.3 74 C474 0
8924 O2 36.34 39.65 3.66 O.3 74 C474 0
8925 O3 36.61 39.73 5.89 O.3 74 C474 0
8926 C 35.06 41.51 7.11 C.3 74 C474 0
8927 H 34.4 41.48 7.8 H 74 C474 0
8928 H 35.62 40.75 7.18 H 74 C474 0
8929 H 35.58 42.3 7.21 H 74 C474 0
8930 C 31.3 38.5 5.94 C.3 74 C474 0
8931 C 32.27 38.57 6.94 C.3 74 C474 0
8932 H 30.73 37.75 6.09 H 74 C474 0
8933 H 32.86 37.82 6.86 H 74 C474 0
8934 H 31.85 38.54 7.79 H 74 C474 0
8935 C1 33.07 39.88 6.8 C.3 74 C474 0
8936 O2 33.27 40.58 7.79 O.3 74 C474 0
8937 O3 33.54 40.25 5.59 O.3 74 C474 0
8938 C 31.99 38.35 4.57 C.3 74 C474 0
8939 H 31.33 38.3 3.88 H 74 C474 0
8940 H 32.56 39.1 4.41 H 74 C474 0
8941 H 32.51 37.55 4.56 H 74 C474 0
8942 C 28.23 41.47 5.41 C.3 74 C474 0
8943 C 29.2 41.3 4.41 C.3 74 C474 0
8944 H 27.67 42.2 5.17 H 74 C474 0
8945 H 29.79 42.04 4.41 H 74 C474 0
8946 H 28.78 41.22 3.57 H 74 C474 0
8947 C1 30 40.01 4.7 C.3 74 C474 0
8948 O2 30.21 39.2 3.79 O.3 74 C474 0
8949 O3 30.48 39.77 5.95 O.3 74 C474 0
8950 C 28.92 41.77 6.75 C.3 74 C474 0
8951 H 28.27 41.89 7.42 H 74 C474 0
8952 H 29.49 41.05 6.98 H 74 C474 0
8953 H 29.44 42.57 6.67 H 74 C474 0
8954 C 25.17 38.58 6.26 C.3 74 C474 0
8955 C 26.14 38.86 7.23 C.3 74 C474 0
8956 H 24.6 37.88 6.58 H 74 C474 0
8957 H 26.73 38.12 7.31 H 74 C474 0
8958 H 25.71 39.03 8.06 H 74 C474 0
8959 C1 26.93 40.11 6.8 C.3 74 C474 0
8960 O2 27.14 41.01 7.61 O.3 74 C474 0
8961 O3 27.41 40.21 5.54 O.3 74 C474 0
8962 C 25.86 38.13 4.96 C.3 74 C474 0
8963 H 25.2 37.94 4.3 H 74 C474 0
8964 H 26.42 38.82 4.65 H 74 C474 0
8965 H 26.37 37.35 5.13 H 74 C474 0
8966 C 22.1 41.36 5.09 C.3 74 C474 0
8967 C 23.07 40.97 4.16 C.3 74 C474 0
8968 H 21.53 42.02 4.7 H 74 C474 0
8969 H 23.66 41.69 3.99 H 74 C474 0
8970 H 22.64 40.71 3.35 H 74 C474 0
8971 C1 23.87 39.78 4.72 C.3 74 C474 0
8972 O2 24.07 38.79 4.02 O.3 74 C474 0
8973 O3 24.34 39.81 5.99 O.3 74 C474 0
8974 C 22.79 41.95 6.34 C.3 74 C474 0
8975 H 22.13 42.22 6.97 H 74 C474 0
8976 H 23.35 41.29 6.72 H 74 C474 0
8977 H 23.31 42.71 6.08 H 74 C474 0
8978 C 19.03 38.72 6.56 C.3 74 C474 0
8979 C 20 39.22 7.44 C.3 74 C474 0
8980 H 18.46 38.12 7.02 H 74 C474 0
8981 H 20.59 38.51 7.69 H 74 C474 0
8982 H 19.58 39.56 8.22 H 74 C474 0
8983 C1 20.8 40.34 6.75 C.3 74 C474 0
8984 O2 21 41.4 7.35 O.3 74 C474 0
8985 O3 21.27 40.16 5.49 O.3 74 C474 0
8986 C 19.72 38 5.39 C.3 74 C474 0
8987 H 19.06 37.67 4.79 H 74 C474 0
8988 H 20.29 38.61 4.93 H 74 C474 0
8989 H 20.24 37.28 5.73 H 74 C474 0
8990 C 15.96 41.18 4.81 C.3 74 C474 0
8991 C 16.93 40.6 3.99 C.3 74 C474 0
8992 H 15.4 41.74 4.29 H 74 C474 0
8993 H 17.52 41.27 3.67 H 74 C474 0
8994 H 16.51 40.17 3.25 H 74 C474 0
8995 C1 17.73 39.56 4.8 C.3 74 C474 0
8996 O2 17.94 38.44 4.33 O.3 74 C474 0
8997 O3 18.21 39.87 6.03 O.3 74 C474 0
8998 C 16.65 42.03 5.89 C.3 74 C474 0
8999 H 16 42.43 6.45 H 74 C474 0
9000 H 17.22 41.48 6.42 H 74 C474 0
9001 H 17.17 42.71 5.48 H 74 C474 0
9002 C 12.89 38.93 6.82 C.3 74 C474 0
9003 C 13.87 39.61 7.58 C.3 74 C474 0
9004 H 12.33 38.44 7.4 H 74 C474 0
9005 H 14.45 38.98 7.97 H 74 C474 0
9006 H 13.44 40.11 8.26 H 74 C474 0
9007 C1 14.66 40.55 6.66 C.3 74 C474 0
9008 O2 14.87 41.72 7 O.3 74 C474 0
9009 O3 15.14 40.1 5.47 O.3 74 C474 0
9010 C 13.59 37.97 5.84 C.3 74 C474 0
9011 H 12.93 37.51 5.33 H 74 C474 0
9012 H 14.15 38.46 5.26 H 74 C474 0
9013 H 14.1 37.34 6.33 H 74 C474 0
9014 C 9.83 40.95 4.57 C.3 74 C474 0
9015 C 10.8 40.19 3.9 C.3 74 C474 0
9016 H 9.26 41.37 3.94 H 74 C474 0
9017 H 11.39 40.78 3.44 H 74 C474 0
9018 H 10.37 39.61 3.28 H 74 C474 0
9019 C1 11.59 39.36 4.92 C.3 74 C474 0
9020 O2 11.8 38.16 4.7 O.3 74 C474 0
9021 O3 12.07 39.94 6.05 O.3 74 C474 0
9022 C 10.52 42.01 5.44 C.3 74 C474 0
9023 H 9.86 42.52 5.9 H 74 C474 0
9024 H 11.08 41.59 6.08 H 74 C474 0
9025 H 11.04 42.59 4.89 H 74 C474 0
9026 C 6.76 39.2 7.03 C.3 74 C474 0
9027 C 7.73 40.02 7.62 C.3 74 C474 0
9028 H 6.19 38.84 7.71 H 74 C474 0
9029 H 8.32 39.49 8.14 H 74 C474 0
9030 H 7.31 40.66 8.17 H 74 C474 0
9031 C1 8.53 40.74 6.51 C.3 74 C474 0
9032 O2 8.73 41.95 6.59 O.3 74 C474 0
9033 O3 9 40.04 5.45 O.3 74 C474 0
9034 C 7.45 38.04 6.28 C.3 74 C474 0
9035 H 6.79 37.48 5.89 H 74 C474 0
9036 H 8.02 38.39 5.61 H 74 C474 0
9037 H 7.97 37.53 6.9 H 74 C474 0
9038 H 3.17 40.23 5.06 H 75 C475 0
9039 C 3.69 40.66 4.39 C.3 75 C475 0
9040 C 4.66 39.78 3.9 C.3 75 C475 0
9041 H 3.13 40.94 3.68 H 75 C475 0
9042 H 5.25 40.25 3.33 H 75 C475 0
9043 H 4.24 39.08 3.42 H 75 C475 0
9044 C1 5.46 39.19 5.08 C.3 75 C475 0
9045 O2 5.67 37.98 5.14 O.3 75 C475 0
9046 O3 5.94 40 6.06 O.3 75 C475 0
9047 C 4.38 41.9 5.01 C.3 75 C475 0
9048 H 3.72 42.49 5.34 H 75 C475 0
9049 H 4.95 41.62 5.72 H 75 C475 0
9050 H 4.9 42.33 4.34 H 75 C475 0
9051 C 92.65 40.75 15.87 C.3 76 C476 0
9052 C 93.62 39.91 15.32 C.3 76 C476 0
9053 H 92.09 41.08 15.18 H 76 C476 0
9054 H 94.21 40.42 14.78 H 76 C476 0
9055 H 93.2 39.24 14.79 H 76 C476 0
9056 C1 94.42 39.23 16.45 C.3 76 C476 0
9057 O2 94.63 38.02 16.42 O.3 76 C476 0
9058 O3 94.9 39.97 17.48 O.3 76 C476 0
9059 H5 95.42 39.42 18.06 H 76 C476 0
9060 C 93.34 41.93 16.58 C.3 76 C476 0
9061 H 92.68 42.51 16.95 H 76 C476 0
9062 H 93.91 41.61 17.26 H 76 C476 0
9063 H 93.86 42.42 15.94 H 76 C476 0
9064 C 89.58 39.39 18.56 C.3 77 C477 0
9065 C 90.55 40.29 19.02 C.3 77 C477 0
9066 H 89.02 39.14 19.28 H 77 C477 0
9067 H 91.15 39.84 19.62 H 77 C477 0
9068 H 90.13 41.01 19.47 H 77 C477 0
9069 C1 91.35 40.83 17.82 C.3 77 C477 0
9070 O2 91.56 42.04 17.72 O.3 77 C477 0
9071 O3 91.83 39.98 16.88 O.3 77 C477 0
9072 C 90.28 38.13 18 C.3 77 C477 0
9073 H 89.62 37.52 17.69 H 77 C477 0
9074 H 90.84 38.38 17.28 H 77 C477 0
9075 H 90.79 37.72 18.68 H 77 C477 0
9076 C 86.52 40.45 15.74 C.3 77 C477 0
9077 C 87.49 39.5 15.38 C.3 77 C477 0
9078 H 85.95 40.61 14.99 H 77 C477 0
9079 H 88.08 39.88 14.74 H 77 C477 0
9080 H 87.06 38.74 15.01 H 77 C477 0
9081 C1 88.28 39.09 16.64 C.3 77 C477 0
9082 O2 88.49 37.9 16.87 O.3 77 C477 0
9083 O3 88.76 40.04 17.48 O.3 77 C477 0
9084 C 87.21 41.76 16.16 C.3 77 C477 0
9085 H 86.55 42.4 16.4 H 77 C477 0
9086 H 87.77 41.59 16.91 H 77 C477 0
9087 H 87.73 42.09 15.44 H 77 C477 0
9088 C 83.45 39.71 18.66 C.3 77 C477 0
9089 C 84.42 40.68 18.91 C.3 77 C477 0
9090 H 82.88 39.62 19.42 H 77 C477 0
9091 H 85.01 40.38 19.59 H 77 C477 0
9092 H 84 41.49 19.2 H 77 C477 0
9093 C1 85.22 40.96 17.62 C.3 77 C477 0
9094 O2 85.42 42.11 17.26 O.3 77 C477 0
9095 O3 85.69 39.92 16.89 O.3 77 C477 0
9096 C 84.14 38.36 18.39 C.3 77 C477 0
9097 H 83.48 37.69 18.22 H 77 C477 0
9098 H 84.71 38.44 17.63 H 77 C477 0
9099 H 84.66 38.11 19.14 H 77 C477 0
9100 C 80.38 40.12 15.67 C.3 77 C477 0
9101 C 81.35 39.12 15.54 C.3 77 C477 0
9102 H 79.82 40.12 14.91 H 77 C477 0
9103 H 81.94 39.35 14.83 H 77 C477 0
9104 H 80.93 38.29 15.34 H 77 C477 0
9105 C1 82.15 38.99 16.85 C.3 77 C477 0
9106 O2 82.36 37.88 17.34 O.3 77 C477 0
9107 O3 82.63 40.11 17.46 O.3 77 C477 0
9108 C 81.07 41.49 15.8 C.3 77 C477 0
9109 H 80.41 42.17 15.9 H 77 C477 0
9110 H 81.64 41.49 16.56 H 77 C477 0
9111 H 81.59 41.66 15.02 H 77 C477 0
9112 C 77.31 40.04 18.69 C.3 77 C477 0
9113 C 78.28 41.05 18.72 C.3 77 C477 0
9114 H 76.75 40.12 19.45 H 77 C477 0
9115 H 78.88 40.9 19.45 H 77 C477 0
9116 H 77.86 41.89 18.82 H 77 C477 0
9117 C1 79.08 41.03 17.4 C.3 77 C477 0
9118 O2 79.29 42.08 16.79 O.3 77 C477 0
9119 O3 79.56 39.85 16.91 O.3 77 C477 0
9120 C 78.01 38.66 18.72 C.3 77 C477 0
9121 H 77.35 37.98 18.7 H 77 C477 0
9122 H 78.57 38.58 17.96 H 77 C477 0
9123 H 78.52 38.58 19.51 H 77 C477 0
9124 C 74.25 39.79 15.68 C.3 77 C477 0
9125 C 75.22 38.78 15.77 C.3 77 C477 0
9126 H 73.68 39.62 14.94 H 77 C477 0
9127 H 75.81 38.84 15.03 H 77 C477 0
9128 H 74.79 37.93 15.76 H 77 C477 0
9129 C1 76.01 38.94 17.08 C.3 77 C477 0
9130 O2 76.22 37.97 17.8 O.3 77 C477 0
9131 O3 76.49 40.17 17.43 O.3 77 C477 0
9132 C 74.94 41.15 15.51 C.3 77 C477 0
9133 H 74.28 41.83 15.45 H 77 C477 0
9134 H 75.5 41.32 16.25 H 77 C477 0
9135 H 75.46 41.14 14.71 H 77 C477 0
9136 C 71.18 40.37 18.65 C.3 77 C477 0
9137 C 72.15 41.36 18.45 C.3 77 C477 0
9138 H 70.61 40.62 19.37 H 77 C477 0
9139 H 72.74 41.38 19.19 H 77 C477 0
9140 H 71.73 42.21 18.36 H 77 C477 0
9141 C1 72.95 41.05 17.17 C.3 77 C477 0
9142 O2 73.15 41.94 16.34 O.3 77 C477 0
9143 O3 73.42 39.8 16.95 O.3 77 C477 0
9144 C 71.87 39.03 18.97 C.3 77 C477 0
9145 H 71.21 38.36 19.11 H 77 C477 0
9146 H 72.44 38.79 18.25 H 77 C477 0
9147 H 72.39 39.13 19.76 H 77 C477 0
9148 C 68.11 39.46 15.77 C.3 77 C477 0
9149 C 69.08 38.5 16.07 C.3 77 C477 0
9150 H 67.55 39.13 15.08 H 77 C477 0
9151 H 69.67 38.4 15.33 H 77 C477 0
9152 H 68.66 37.67 16.25 H 77 C477 0
9153 C1 69.88 38.95 17.31 C.3 77 C477 0
9154 O2 70.09 38.16 18.23 O.3 77 C477 0
9155 O3 70.36 40.22 17.39 O.3 77 C477 0
9156 C 68.8 40.75 15.29 C.3 77 C477 0
9157 H 68.14 41.41 15.09 H 77 C477 0
9158 H 69.37 41.08 15.98 H 77 C477 0
9159 H 69.32 40.57 14.52 H 77 C477 0
9160 C 65.04 40.68 18.53 C.3 77 C477 0
9161 C 66.01 41.61 18.12 C.3 77 C477 0
9162 H 64.48 41.09 19.18 H 77 C477 0
9163 H 66.6 41.79 18.84 H 77 C477 0
9164 H 65.59 42.41 17.85 H 77 C477 0
9165 C1 66.81 41.03 16.94 C.3 77 C477 0
9166 O2 67.02 41.71 15.94 O.3 77 C477 0
9167 O3 67.29 39.75 17 O.3 77 C477 0
9168 C 65.74 39.45 19.14 C.3 77 C477 0
9169 H 65.08 38.83 19.42 H 77 C477 0
9170 H 66.3 39.05 18.49 H 77 C477 0
9171 H 66.25 39.72 19.89 H 77 C477 0
9172 C 61.98 39.17 15.92 C.3 77 C477 0
9173 C 62.95 38.29 16.43 C.3 77 C477 0
9174 H 61.41 38.69 15.32 H 77 C477 0
9175 H 63.54 38.03 15.73 H 77 C477 0
9176 H 62.52 37.52 16.79 H 77 C477 0
9177 C1 63.74 39 17.54 C.3 77 C477 0
9178 O2 63.95 38.43 18.61 O.3 77 C477 0
9179 O3 64.22 40.26 17.34 O.3 77 C477 0
9180 C 62.67 40.32 15.17 C.3 77 C477 0
9181 H 62.01 40.91 14.83 H 77 C477 0
9182 H 63.23 40.79 15.77 H 77 C477 0
9183 H 63.19 39.97 14.46 H 77 C477 0
9184 C 58.91 40.96 18.34 C.3 77 C477 0
9185 C 59.88 41.77 17.74 C.3 77 C477 0
9186 H 58.34 41.5 18.89 H 77 C477 0
9187 H 60.47 42.11 18.41 H 77 C477 0
9188 H 59.46 42.5 17.3 H 77 C477 0
9189 C1 60.68 40.95 16.72 C.3 77 C477 0
9190 O2 60.88 41.4 15.59 O.3 77 C477 0
9191 O3 61.15 39.72 17.06 O.3 77 C477 0
9192 C 59.6 39.9 19.21 C.3 77 C477 0
9193 H 58.94 39.35 19.62 H 77 C477 0
9194 H 60.17 39.36 18.67 H 77 C477 0
9195 H 60.12 40.32 19.89 H 77 C477 0
9196 C 55.84 38.91 16.13 C.3 77 C477 0
9197 C 56.81 38.17 16.82 C.3 77 C477 0
9198 H 55.27 38.32 15.65 H 77 C477 0
9199 H 57.4 37.76 16.2 H 77 C477 0
9200 H 56.39 37.5 17.34 H 77 C477 0
9201 C1 57.61 39.1 17.75 C.3 77 C477 0
9202 O2 57.81 38.78 18.92 O.3 77 C477 0
9203 O3 58.09 40.29 17.27 O.3 77 C477 0
9204 C 56.53 39.87 15.15 C.3 77 C477 0
9205 H 55.87 40.38 14.69 H 77 C477 0
9206 H 57.1 40.46 15.63 H 77 C477 0
9207 H 57.05 39.38 14.53 H 77 C477 0
9208 C 52.77 41.2 18.1 C.3 77 C477 0
9209 C 53.74 41.86 17.34 C.3 77 C477 0
9210 H 52.21 41.84 18.52 H 77 C477 0
9211 H 54.33 42.33 17.91 H 77 C477 0
9212 H 53.32 42.47 16.75 H 77 C477 0
9213 C1 54.54 40.82 16.52 C.3 77 C477 0
9214 O2 54.75 41.01 15.32 O.3 77 C477 0
9215 O3 55.02 39.7 17.12 O.3 77 C477 0
9216 C 53.46 40.35 19.19 C.3 77 C477 0
9217 H 52.81 39.9 19.7 H 77 C477 0
9218 H 54.03 39.71 18.77 H 77 C477 0
9219 H 53.98 40.91 19.75 H 77 C477 0
9220 C 49.71 38.71 16.4 C.3 77 C477 0
9221 C 50.68 38.13 17.23 C.3 77 C477 0
9222 H 49.14 38.02 16.06 H 77 C477 0
9223 H 51.27 37.6 16.71 H 77 C477 0
9224 H 50.25 37.59 17.89 H 77 C477 0
9225 C1 51.47 39.25 17.93 C.3 77 C477 0
9226 O2 51.68 39.2 19.14 O.3 77 C477 0
9227 O3 51.95 40.3 17.21 O.3 77 C477 0
9228 C 50.4 39.43 15.23 C.3 77 C477 0
9229 H 49.74 39.82 14.66 H 77 C477 0
9230 H 50.96 40.11 15.57 H 77 C477 0
9231 H 50.91 38.81 14.73 H 77 C477 0
9232 C 46.64 41.37 17.82 C.3 77 C477 0
9233 C 47.61 41.85 16.93 C.3 77 C477 0
9234 H 46.07 42.09 18.08 H 77 C477 0
9235 H 48.2 42.43 17.38 H 77 C477 0
9236 H 47.19 42.31 16.22 H 77 C477 0
9237 C1 48.41 40.66 16.36 C.3 77 C477 0
9238 O2 48.61 40.58 15.15 O.3 77 C477 0
9239 O3 48.88 39.69 17.19 O.3 77 C477 0
9240 C 47.33 40.78 19.06 C.3 77 C477 0
9241 H 46.67 40.46 19.66 H 77 C477 0
9242 H 47.9 40.06 18.8 H 77 C477 0
9243 H 47.85 41.45 19.48 H 77 C477 0
9244 C 43.57 38.57 16.7 C.3 77 C477 0
9245 C 44.54 38.19 17.64 C.3 77 C477 0
9246 H 43.01 37.82 16.52 H 77 C477 0
9247 H 45.13 37.56 17.25 H 77 C477 0
9248 H 44.12 37.81 18.4 H 77 C477 0
9249 C1 45.34 39.44 18.08 C.3 77 C477 0
9250 O2 45.54 39.65 19.27 O.3 77 C477 0
9251 O3 45.82 40.3 17.14 O.3 77 C477 0
9252 C 44.26 39.02 15.4 C.3 77 C477 0
9253 H 43.6 39.27 14.77 H 77 C477 0
9254 H 44.83 39.76 15.58 H 77 C477 0
9255 H 44.78 38.3 15.05 H 77 C477 0
9256 C 40.5 41.48 17.5 C.3 77 C477 0
9257 C 41.47 41.74 16.53 C.3 77 C477 0
9258 H 39.94 42.23 17.6 H 77 C477 0
9259 H 42.06 42.42 16.84 H 77 C477 0
9260 H 41.05 42.04 15.73 H 77 C477 0
9261 C1 42.27 40.46 16.23 C.3 77 C477 0
9262 O2 42.48 40.12 15.07 O.3 77 C477 0
9263 O3 42.75 39.7 17.26 O.3 77 C477 0
9264 C 41.19 41.17 18.84 C.3 77 C477 0
9265 H 40.54 40.99 19.5 H 77 C477 0
9266 H 41.76 40.42 18.74 H 77 C477 0
9267 H 41.71 41.92 19.11 H 77 C477 0
9268 C 37.44 38.5 17.03 C.3 77 C477 0
9269 C 38.41 38.34 18.03 C.3 77 C477 0
9270 H 36.87 37.73 17.02 H 77 C477 0
9271 H 39 37.63 17.79 H 77 C477 0
9272 H 37.98 38.13 18.85 H 77 C477 0
9273 C1 39.2 39.65 18.18 C.3 77 C477 0
9274 O2 39.41 40.12 19.3 O.3 77 C477 0
9275 O3 39.68 40.29 17.08 O.3 77 C477 0
9276 C 38.13 38.65 15.66 C.3 77 C477 0
9277 H 37.47 38.76 14.99 H 77 C477 0
9278 H 38.69 39.41 15.68 H 77 C477 0
9279 H 38.64 37.87 15.48 H 77 C477 0
9280 C 34.37 41.51 17.17 C.3 77 C477 0
9281 C 35.34 41.56 16.16 C.3 77 C477 0
9282 H 33.8 42.27 17.1 H 77 C477 0
9283 H 35.93 42.28 16.32 H 77 C477 0
9284 H 34.91 41.67 15.32 H 77 C477 0
9285 C1 36.14 40.24 16.15 C.3 77 C477 0
9286 O2 36.34 39.65 15.09 O.3 77 C477 0
9287 O3 36.61 39.73 17.32 O.3 77 C477 0
9288 C 35.06 41.51 18.54 C.3 77 C477 0
9289 H 34.4 41.48 19.23 H 77 C477 0
9290 H 35.62 40.75 18.61 H 77 C477 0
9291 H 35.58 42.3 18.64 H 77 C477 0
9292 C 31.3 38.5 17.37 C.3 77 C477 0
9293 C 32.27 38.57 18.37 C.3 77 C477 0
9294 H 30.73 37.75 17.52 H 77 C477 0
9295 H 32.86 37.82 18.29 H 77 C477 0
9296 H 31.85 38.54 19.22 H 77 C477 0
9297 C1 33.07 39.88 18.23 C.3 77 C477 0
9298 O2 33.27 40.58 19.22 O.3 77 C477 0
9299 O3 33.54 40.25 17.02 O.3 77 C477 0
9300 C 31.99 38.35 16 C.3 77 C477 0
9301 H 31.33 38.3 15.31 H 77 C477 0
9302 H 32.56 39.1 15.84 H 77 C477 0
9303 H 32.51 37.55 15.99 H 77 C477 0
9304 C 28.23 41.47 16.84 C.3 77 C477 0
9305 C 29.2 41.3 15.84 C.3 77 C477 0
9306 H 27.67 42.2 16.6 H 77 C477 0
9307 H 29.79 42.04 15.84 H 77 C477 0
9308 H 28.78 41.22 15 H 77 C477 0
9309 C1 30 40.01 16.13 C.3 77 C477 0
9310 O2 30.21 39.2 15.22 O.3 77 C477 0
9311 O3 30.48 39.77 17.38 O.3 77 C477 0
9312 C 28.92 41.77 18.18 C.3 77 C477 0
9313 H 28.27 41.89 18.85 H 77 C477 0
9314 H 29.49 41.05 18.41 H 77 C477 0
9315 H 29.44 42.57 18.1 H 77 C477 0
9316 C 25.17 38.58 17.69 C.3 77 C477 0
9317 C 26.14 38.86 18.66 C.3 77 C477 0
9318 H 24.6 37.88 18.01 H 77 C477 0
9319 H 26.73 38.12 18.74 H 77 C477 0
9320 H 25.71 39.03 19.49 H 77 C477 0
9321 C1 26.93 40.11 18.23 C.3 77 C477 0
9322 O2 27.14 41.01 19.04 O.3 77 C477 0
9323 O3 27.41 40.21 16.97 O.3 77 C477 0
9324 C 25.86 38.13 16.39 C.3 77 C477 0
9325 H 25.2 37.94 15.73 H 77 C477 0
9326 H 26.42 38.82 16.08 H 77 C477 0
9327 H 26.37 37.35 16.56 H 77 C477 0
9328 C 22.1 41.36 16.52 C.3 77 C477 0
9329 C 23.07 40.97 15.59 C.3 77 C477 0
9330 H 21.53 42.02 16.13 H 77 C477 0
9331 H 23.66 41.69 15.42 H 77 C477 0
9332 H 22.64 40.71 14.78 H 77 C477 0
9333 C1 23.87 39.78 16.15 C.3 77 C477 0
9334 O2 24.07 38.79 15.45 O.3 77 C477 0
9335 O3 24.34 39.81 17.42 O.3 77 C477 0
9336 C 22.79 41.95 17.77 C.3 77 C477 0
9337 H 22.13 42.22 18.4 H 77 C477 0
9338 H 23.35 41.29 18.15 H 77 C477 0
9339 H 23.31 42.71 17.51 H 77 C477 0
9340 C 19.03 38.72 17.99 C.3 77 C477 0
9341 C 20 39.22 18.87 C.3 77 C477 0
9342 H 18.46 38.12 18.45 H 77 C477 0
9343 H 20.59 38.51 19.12 H 77 C477 0
9344 H 19.58 39.56 19.65 H 77 C477 0
9345 C1 20.8 40.34 18.18 C.3 77 C477 0
9346 O2 21 41.4 18.78 O.3 77 C477 0
9347 O3 21.27 40.16 16.92 O.3 77 C477 0
9348 C 19.72 38 16.82 C.3 77 C477 0
9349 H 19.06 37.67 16.22 H 77 C477 0
9350 H 20.29 38.61 16.36 H 77 C477 0
9351 H 20.24 37.28 17.16 H 77 C477 0
9352 C 15.96 41.18 16.24 C.3 77 C477 0
9353 C 16.93 40.6 15.42 C.3 77 C477 0
9354 H 15.4 41.74 15.72 H 77 C477 0
9355 H 17.52 41.27 15.1 H 77 C477 0
9356 H 16.51 40.17 14.68 H 77 C477 0
9357 C1 17.73 39.56 16.23 C.3 77 C477 0
9358 O2 17.94 38.44 15.76 O.3 77 C477 0
9359 O3 18.21 39.87 17.46 O.3 77 C477 0
9360 C 16.65 42.03 17.32 C.3 77 C477 0
9361 H 16 42.43 17.88 H 77 C477 0
9362 H 17.22 41.48 17.85 H 77 C477 0
9363 H 17.17 42.71 16.91 H 77 C477 0
9364 C 12.89 38.93 18.25 C.3 77 C477 0
9365 C 13.87 39.61 19.01 C.3 77 C477 0
9366 H 12.33 38.44 18.83 H 77 C477 0
9367 H 14.45 38.98 19.4 H 77 C477 0
9368 H 13.44 40.11 19.69 H 77 C477 0
9369 C1 14.66 40.55 18.09 C.3 77 C477 0
9370 O2 14.87 41.72 18.43 O.3 77 C477 0
9371 O3 15.14 40.1 16.9 O.3 77 C477 0
9372 C 13.59 37.97 17.27 C.3 77 C477 0
9373 H 12.93 37.51 16.76 H 77 C477 0
9374 H 14.15 38.46 16.69 H 77 C477 0
9375 H 14.1 37.34 17.76 H 77 C477 0
9376 C 9.83 40.95 16 C.3 77 C477 0
9377 C 10.8 40.19 15.33 C.3 77 C477 0
9378 H 9.26 41.37 15.37 H 77 C477 0
9379 H 11.39 40.78 14.87 H 77 C477 0
9380 H 10.37 39.61 14.71 H 77 C477 0
9381 C1 11.59 39.36 16.35 C.3 77 C477 0
9382 O2 11.8 38.16 16.13 O.3 77 C477 0
9383 O3 12.07 39.94 17.48 O.3 77 C477 0
9384 C 10.52 42.01 16.87 C.3 77 C477 0
9385 H 9.86 42.52 17.33 H 77 C477 0
9386 H 11.08 41.59 17.51 H 77 C477 0
9387 H 11.04 42.59 16.32 H 77 C477 0
9388 C 6.76 39.2 18.46 C.3 77 C477 0
9389 C 7.73 40.02 19.05 C.3 77 C477 0
9390 H 6.19 38.84 19.14 H 77 C477 0
9391 H 8.32 39.49 19.57 H 77 C477 0
9392 H 7.31 40.66 19.6 H 77 C477 0
9393 C1 8.53 40.74 17.94 C.3 77 C477 0
9394 O2 8.73 41.95 18.02 O.3 77 C477 0
9395 O3 9 40.04 16.88 O.3 77 C477 0
9396 C 7.45 38.04 17.71 C.3 77 C477 0
9397 H 6.79 37.48 17.32 H 77 C477 0
9398 H 8.02 38.39 17.04 H 77 C477 0
9399 H 7.97 37.53 18.33 H 77 C477 0
9400 H 3.17 40.23 16.49 H 78 C478 0
9401 C 3.69 40.66 15.82 C.3 78 C478 0
9402 C 4.66 39.78 15.33 C.3 78 C478 0
9403 H 3.13 40.94 15.11 H 78 C478 0
9404 H 5.25 40.25 14.76 H 78 C478 0
9405 H 4.24 39.08 14.85 H 78 C478 0
9406 C1 5.46 39.19 16.51 C.3 78 C478 0
9407 O2 5.67 37.98 16.57 O.3 78 C478 0
9408 O3 5.94 40 17.49 O.3 78 C478 0
9409 C 4.38 41.9 16.44 C.3 78 C478 0
9410 H 3.72 42.49 16.77 H 78 C478 0
9411 H 4.95 41.62 17.15 H 78 C478 0
9412 H 4.9 42.33 15.77 H 78 C478 0
9413 C 92.65 40.75 27.3 C.3 79 C479 0
9414 C 93.62 39.91 26.75 C.3 79 C479 0
9415 H 92.09 41.08 26.61 H 79 C479 0
9416 H 94.21 40.42 26.21 H 79 C479 0
9417 H 93.2 39.24 26.22 H 79 C479 0
9418 C1 94.42 39.23 27.88 C.3 79 C479 0
9419 O2 94.63 38.02 27.85 O.3 79 C479 0
9420 O3 94.9 39.97 28.91 O.3 79 C479 0
9421 H5 95.42 39.42 29.49 H 79 C479 0
9422 C 93.34 41.93 28.01 C.3 79 C479 0
9423 H 92.68 42.51 28.38 H 79 C479 0
9424 H 93.91 41.61 28.69 H 79 C479 0
9425 H 93.86 42.42 27.37 H 79 C479 0
9426 C 89.58 39.39 29.99 C.3 80 C480 0
9427 C 90.55 40.29 30.45 C.3 80 C480 0
9428 H 89.02 39.14 30.71 H 80 C480 0
9429 H 91.15 39.84 31.05 H 80 C480 0
9430 H 90.13 41.01 30.9 H 80 C480 0
9431 C1 91.35 40.83 29.25 C.3 80 C480 0
9432 O2 91.56 42.04 29.15 O.3 80 C480 0
9433 O3 91.83 39.98 28.31 O.3 80 C480 0
9434 C 90.28 38.13 29.43 C.3 80 C480 0
9435 H 89.62 37.52 29.12 H 80 C480 0
9436 H 90.84 38.38 28.71 H 80 C480 0
9437 H 90.79 37.72 30.11 H 80 C480 0
9438 C 86.52 40.45 27.17 C.3 80 C480 0
9439 C 87.49 39.5 26.81 C.3 80 C480 0
9440 H 85.95 40.61 26.42 H 80 C480 0
9441 H 88.08 39.88 26.17 H 80 C480 0
9442 H 87.06 38.74 26.44 H 80 C480 0
9443 C1 88.28 39.09 28.07 C.3 80 C480 0
9444 O2 88.49 37.9 28.3 O.3 80 C480 0
9445 O3 88.76 40.04 28.91 O.3 80 C480 0
9446 C 87.21 41.76 27.59 C.3 80 C480 0
9447 H 86.55 42.4 27.83 H 80 C480 0
9448 H 87.77 41.59 28.34 H 80 C480 0
9449 H 87.73 42.09 26.87 H 80 C480 0
9450 C 83.45 39.71 30.09 C.3 80 C480 0
9451 C 84.42 40.68 30.34 C.3 80 C480 0
9452 H 82.88 39.62 30.85 H 80 C480 0
9453 H 85.01 40.38 31.02 H 80 C480 0
9454 H 84 41.49 30.63 H 80 C480 0
9455 C1 85.22 40.96 29.05 C.3 80 C480 0
9456 O2 85.42 42.11 28.69 O.3 80 C480 0
9457 O3 85.69 39.92 28.32 O.3 80 C480 0
9458 C 84.14 38.36 29.82 C.3 80 C480 0
9459 H 83.48 37.69 29.65 H 80 C480 0
9460 H 84.71 38.44 29.06 H 80 C480 0
9461 H 84.66 38.11 30.57 H 80 C480 0
9462 C 80.38 40.12 27.1 C.3 80 C480 0
9463 C 81.35 39.12 26.97 C.3 80 C480 0
9464 H 79.82 40.12 26.34 H 80 C480 0
9465 H 81.94 39.35 26.26 H 80 C480 0
9466 H 80.93 38.29 26.77 H 80 C480 0
9467 C1 82.15 38.99 28.28 C.3 80 C480 0
9468 O2 82.36 37.88 28.77 O.3 80 C480 0
9469 O3 82.63 40.11 28.89 O.3 80 C480 0
9470 C 81.07 41.49 27.23 C.3 80 C480 0
9471 H 80.41 42.17 27.33 H 80 C480 0
9472 H 81.64 41.49 27.99 H 80 C480 0
9473 H 81.59 41.66 26.45 H 80 C480 0
9474 C 77.31 40.04 30.12 C.3 80 C480 0
9475 C 78.28 41.05 30.15 C.3 80 C480 0
9476 H 76.75 40.12 30.88 H 80 C480 0
9477 H 78.88 40.9 30.88 H 80 C480 0
9478 H 77.86 41.89 30.25 H 80 C480 0
9479 C1 79.08 41.03 28.83 C.3 80 C480 0
9480 O2 79.29 42.08 28.22 O.3 80 C480 0
9481 O3 79.56 39.85 28.34 O.3 80 C480 0
9482 C 78.01 38.66 30.15 C.3 80 C480 0
9483 H 77.35 37.98 30.13 H 80 C480 0
9484 H 78.57 38.58 29.39 H 80 C480 0
9485 H 78.52 38.58 30.94 H 80 C480 0
9486 C 74.25 39.79 27.11 C.3 80 C480 0
9487 C 75.22 38.78 27.2 C.3 80 C480 0
9488 H 73.68 39.62 26.37 H 80 C480 0
9489 H 75.81 38.84 26.46 H 80 C480 0
9490 H 74.79 37.93 27.19 H 80 C480 0
9491 C1 76.01 38.94 28.51 C.3 80 C480 0
9492 O2 76.22 37.97 29.23 O.3 80 C480 0
9493 O3 76.49 40.17 28.86 O.3 80 C480 0
9494 C 74.94 41.15 26.94 C.3 80 C480 0
9495 H 74.28 41.83 26.88 H 80 C480 0
9496 H 75.5 41.32 27.68 H 80 C480 0
9497 H 75.46 41.14 26.14 H 80 C480 0
9498 C 71.18 40.37 30.08 C.3 80 C480 0
9499 C 72.15 41.36 29.88 C.3 80 C480 0
9500 H 70.61 40.62 30.8 H 80 C480 0
9501 H 72.74 41.38 30.62 H 80 C480 0
9502 H 71.73 42.21 29.79 H 80 C480 0
9503 C1 72.95 41.05 28.6 C.3 80 C480 0
9504 O2 73.15 41.94 27.77 O.3 80 C480 0
9505 O3 73.42 39.8 28.38 O.3 80 C480 0
9506 C 71.87 39.03 30.4 C.3 80 C480 0
9507 H 71.21 38.36 30.54 H 80 C480 0
9508 H 72.44 38.79 29.68 H 80 C480 0
9509 H 72.39 39.13 31.19 H 80 C480 0
9510 C 68.11 39.46 27.2 C.3 80 C480 0
9511 C 69.08 38.5 27.5 C.3 80 C480 0
9512 H 67.55 39.13 26.51 H 80 C480 0
9513 H 69.67 38.4 26.76 H 80 C480 0
9514 H 68.66 37.67 27.68 H 80 C480 0
9515 C1 69.88 38.95 28.74 C.3 80 C480 0
9516 O2 70.09 38.16 29.66 O.3 80 C480 0
9517 O3 70.36 40.22 28.82 O.3 80 C480 0
9518 C 68.8 40.75 26.72 C.3 80 C480 0
9519 H 68.14 41.41 26.52 H 80 C480 0
9520 H 69.37 41.08 27.41 H 80 C480 0
9521 H 69.32 40.57 25.95 H 80 C480 0
9522 C 65.04 40.68 29.96 C.3 80 C480 0
9523 C 66.01 41.61 29.55 C.3 80 C480 0
9524 H 64.48 41.09 30.61 H 80 C480 0
9525 H 66.6 41.79 30.27 H 80 C480 0
9526 H 65.59 42.41 29.28 H 80 C480 0
9527 C1 66.81 41.03 28.37 C.3 80 C480 0
9528 O2 67.02 41.71 27.37 O.3 80 C480 0
9529 O3 67.29 39.75 28.43 O.3 80 C480 0
9530 C 65.74 39.45 30.57 C.3 80 C480 0
9531 H 65.08 38.83 30.85 H 80 C480 0
9532 H 66.3 39.05 29.92 H 80 C480 0
9533 H 66.25 39.72 31.32 H 80 C480 0
9534 C 61.98 39.17 27.35 C.3 80 C480 0
9535 C 62.95 38.29 27.86 C.3 80 C480 0
9536 H 61.41 38.69 26.75 H 80 C480 0
9537 H 63.54 38.03 27.16 H 80 C480 0
9538 H 62.52 37.52 28.22 H 80 C480 0
9539 C1 63.74 39 28.97 C.3 80 C480 0
9540 O2 63.95 38.43 30.04 O.3 80 C480 0
9541 O3 64.22 40.26 28.77 O.3 80 C480 0
9542 C 62.67 40.32 26.6 C.3 80 C480 0
9543 H 62.01 40.91 26.26 H 80 C480 0
9544 H 63.23 40.79 27.2 H 80 C480 0
9545 H 63.19 39.97 25.89 H 80 C480 0
9546 C 58.91 40.96 29.77 C.3 80 C480 0
9547 C 59.88 41.77 29.17 C.3 80 C480 0
9548 H 58.34 41.5 30.32 H 80 C480 0
9549 H 60.47 42.11 29.84 H 80 C480 0
9550 H 59.46 42.5 28.73 H 80 C480 0
9551 C1 60.68 40.95 28.15 C.3 80 C480 0
9552 O2 60.88 41.4 27.02 O.3 80 C480 0
9553 O3 61.15 39.72 28.49 O.3 80 C480 0
9554 C 59.6 39.9 30.64 C.3 80 C480 0
9555 H 58.94 39.35 31.05 H 80 C480 0
9556 H 60.17 39.36 30.1 H 80 C480 0
9557 H 60.12 40.32 31.32 H 80 C480 0
9558 C 55.84 38.91 27.56 C.3 80 C480 0
9559 C 56.81 38.17 28.25 C.3 80 C480 0
9560 H 55.27 38.32 27.08 H 80 C480 0
9561 H 57.4 37.76 27.63 H 80 C480 0
9562 H 56.39 37.5 28.77 H 80 C480 0
9563 C1 57.61 39.1 29.18 C.3 80 C480 0
9564 O2 57.81 38.78 30.35 O.3 80 C480 0
9565 O3 58.09 40.29 28.7 O.3 80 C480 0
9566 C 56.53 39.87 26.58 C.3 80 C480 0
9567 H 55.87 40.38 26.12 H 80 C480 0
9568 H 57.1 40.46 27.06 H 80 C480 0
9569 H 57.05 39.38 25.96 H 80 C480 0
9570 C 52.77 41.2 29.53 C.3 80 C480 0
9571 C 53.74 41.86 28.77 C.3 80 C480 0
9572 H 52.21 41.84 29.95 H 80 C480 0
9573 H 54.33 42.33 29.34 H 80 C480 0
9574 H 53.32 42.47 28.18 H 80 C480 0
9575 C1 54.54 40.82 27.95 C.3 80 C480 0
9576 O2 54.75 41.01 26.75 O.3 80 C480 0
9577 O3 55.02 39.7 28.55 O.3 80 C480 0
9578 C 53.46 40.35 30.62 C.3 80 C480 0
9579 H 52.81 39.9 31.13 H 80 C480 0
9580 H 54.03 39.71 30.2 H 80 C480 0
9581 H 53.98 40.91 31.18 H 80 C480 0
9582 C 49.71 38.71 27.83 C.3 80 C480 0
9583 C 50.68 38.13 28.66 C.3 80 C480 0
9584 H 49.14 38.02 27.49 H 80 C480 0
9585 H 51.27 37.6 28.14 H 80 C480 0
9586 H 50.25 37.59 29.32 H 80 C480 0
9587 C1 51.47 39.25 29.36 C.3 80 C480 0
9588 O2 51.68 39.2 30.57 O.3 80 C480 0
9589 O3 51.95 40.3 28.64 O.3 80 C480 0
9590 C 50.4 39.43 26.66 C.3 80 C480 0
9591 H 49.74 39.82 26.09 H 80 C480 0
9592 H 50.96 40.11 27 H 80 C480 0
9593 H 50.91 38.81 26.16 H 80 C480 0
9594 C 46.64 41.37 29.25 C.3 80 C480 0
9595 C 47.61 41.85 28.36 C.3 80 C480 0
9596 H 46.07 42.09 29.51 H 80 C480 0
9597 H 48.2 42.43 28.81 H 80 C480 0
9598 H 47.19 42.31 27.65 H 80 C480 0
9599 C1 48.41 40.66 27.79 C.3 80 C480 0
9600 O2 48.61 40.58 26.58 O.3 80 C480 0
9601 O3 48.88 39.69 28.62 O.3 80 C480 0
9602 C 47.33 40.78 30.49 C.3 80 C480 0
9603 H 46.67 40.46 31.09 H 80 C480 0
9604 H 47.9 40.06 30.23 H 80 C480 0
9605 H 47.85 41.45 30.91 H 80 C480 0
9606 C 43.57 38.57 28.13 C.3 80 C480 0
9607 C 44.54 38.19 29.07 C.3 80 C480 0
9608 H 43.01 37.82 27.95 H 80 C480 0
9609 H 45.13 37.56 28.68 H 80 C480 0
9610 H 44.12 37.81 29.83 H 80 C480 0
9611 C1 45.34 39.44 29.51 C.3 80 C480 0
9612 O2 45.54 39.65 30.7 O.3 80 C480 0
9613 O3 45.82 40.3 28.57 O.3 80 C480 0
9614 C 44.26 39.02 26.83 C.3 80 C480 0
9615 H 43.6 39.27 26.2 H 80 C480 0
9616 H 44.83 39.76 27.01 H 80 C480 0
9617 H 44.78 38.3 26.48 H 80 C480 0
9618 C 40.5 41.48 28.93 C.3 80 C480 0
9619 C 41.47 41.74 27.96 C.3 80 C480 0
9620 H 39.94 42.23 29.03 H 80 C480 0
9621 H 42.06 42.42 28.27 H 80 C480 0
9622 H 41.05 42.04 27.16 H 80 C480 0
9623 C1 42.27 40.46 27.66 C.3 80 C480 0
9624 O2 42.48 40.12 26.5 O.3 80 C480 0
9625 O3 42.75 39.7 28.69 O.3 80 C480 0
9626 C 41.19 41.17 30.27 C.3 80 C480 0
9627 H 40.54 40.99 30.93 H 80 C480 0
9628 H 41.76 40.42 30.17 H 80 C480 0
9629 H 41.71 41.92 30.54 H 80 C480 0
9630 C 37.44 38.5 28.46 C.3 80 C480 0
9631 C 38.41 38.34 29.46 C.3 80 C480 0
9632 H 36.87 37.73 28.45 H 80 C480 0
9633 H 39 37.63 29.22 H 80 C480 0
9634 H 37.98 38.13 30.28 H 80 C480 0
9635 C1 39.2 39.65 29.61 C.3 80 C480 0
9636 O2 39.41 40.12 30.73 O.3 80 C480 0
9637 O3 39.68 40.29 28.51 O.3 80 C480 0
9638 C 38.13 38.65 27.09 C.3 80 C480 0
9639 H 37.47 38.76 26.42 H 80 C480 0
9640 H 38.69 39.41 27.11 H 80 C480 0
9641 H 38.64 37.87 26.91 H 80 C480 0
9642 C 34.37 41.51 28.6 C.3 80 C480 0
9643 C 35.34 41.56 27.59 C.3 80 C480 0
9644 H 33.8 42.27 28.53 H 80 C480 0
9645 H 35.93 42.28 27.75 H 80 C480 0
9646 H 34.91 41.67 26.75 H 80 C480 0
9647 C1 36.14 40.24 27.58 C.3 80 C480 0
9648 O2 36.34 39.65 26.52 O.3 80 C480 0
9649 O3 36.61 39.73 28.75 O.3 80 C480 0
9650 C 35.06 41.51 29.97 C.3 80 C480 0
9651 H 34.4 41.48 30.66 H 80 C480 0
9652 H 35.62 40.75 30.04 H 80 C480 0
9653 H 35.58 42.3 30.07 H 80 C480 0
9654 C 31.3 38.5 28.8 C.3 80 C480 0
9655 C 32.27 38.57 29.8 C.3 80 C480 0
9656 H 30.73 37.75 28.95 H 80 C480 0
9657 H 32.86 37.82 29.72 H 80 C480 0
9658 H 31.85 38.54 30.65 H 80 C480 0
9659 C1 33.07 39.88 29.66 C.3 80 C480 0
9660 O2 33.27 40.58 30.65 O.3 80 C480 0
9661 O3 33.54 40.25 28.45 O.3 80 C480 0
9662 C 31.99 38.35 27.43 C.3 80 C480 0
9663 H 31.33 38.3 26.74 H 80 C480 0
9664 H 32.56 39.1 27.27 H 80 C480 0
9665 H 32.51 37.55 27.42 H 80 C480 0
9666 C 28.23 41.47 28.27 C.3 80 C480 0
9667 C 29.2 41.3 27.27 C.3 80 C480 0
9668 H 27.67 42.2 28.03 H 80 C480 0
9669 H 29.79 42.04 27.27 H 80 C480 0
9670 H 28.78 41.22 26.43 H 80 C480 0
9671 C1 30 40.01 27.56 C.3 80 C480 0
9672 O2 30.21 39.2 26.65 O.3 80 C480 0
9673 O3 30.48 39.77 28.81 O.3 80 C480 0
9674 C 28.92 41.77 29.61 C.3 80 C480 0
9675 H 28.27 41.89 30.28 H 80 C480 0
9676 H 29.49 41.05 29.84 H 80 C480 0
9677 H 29.44 42.57 29.53 H 80 C480 0
9678 C 25.17 38.58 29.12 C.3 80 C480 0
9679 C 26.14 38.86 30.09 C.3 80 C480 0
9680 H 24.6 37.88 29.44 H 80 C480 0
9681 H 26.73 38.12 30.17 H 80 C480 0
9682 H 25.71 39.03 30.92 H 80 C480 0
9683 C1 26.93 40.11 29.66 C.3 80 C480 0
9684 O2 27.14 41.01 30.47 O.3 80 C480 0
9685 O3 27.41 40.21 28.4 O.3 80 C480 0
9686 C 25.86 38.13 27.82 C.3 80 C480 0
9687 H 25.2 37.94 27.16 H 80 C480 0
9688 H 26.42 38.82 27.51 H 80 C480 0
9689 H 26.37 37.35 27.99 H 80 C480 0
9690 C 22.1 41.36 27.95 C.3 80 C480 0
9691 C 23.07 40.97 27.02 C.3 80 C480 0
9692 H 21.53 42.02 27.56 H 80 C480 0
9693 H 23.66 41.69 26.85 H 80 C480 0
9694 H 22.64 40.71 26.21 H 80 C480 0
9695 C1 23.87 39.78 27.58 C.3 80 C480 0
9696 O2 24.07 38.79 26.88 O.3 80 C480 0
9697 O3 24.34 39.81 28.85 O.3 80 C480 0
9698 C 22.79 41.95 29.2 C.3 80 C480 0
9699 H 22.13 42.22 29.83 H 80 C480 0
9700 H 23.35 41.29 29.58 H 80 C480 0
9701 H 23.31 42.71 28.94 H 80 C480 0
9702 C 19.03 38.72 29.42 C.3 80 C480 0
9703 C 20 39.22 30.3 C.3 80 C480 0
9704 H 18.46 38.12 29.88 H 80 C480 0
9705 H 20.59 38.51 30.55 H 80 C480 0
9706 H 19.58 39.56 31.08 H 80 C480 0
9707 C1 20.8 40.34 29.61 C.3 80 C480 0
9708 O2 21 41.4 30.21 O.3 80 C480 0
9709 O3 21.27 40.16 28.35 O.3 80 C480 0
9710 C 19.72 38 28.25 C.3 80 C480 0
9711 H 19.06 37.67 27.65 H 80 C480 0
9712 H 20.29 38.61 27.79 H 80 C480 0
9713 H 20.24 37.28 28.59 H 80 C480 0
9714 C 15.96 41.18 27.67 C.3 80 C480 0
9715 C 16.93 40.6 26.85 C.3 80 C480 0
9716 H 15.4 41.74 27.15 H 80 C480 0
9717 H 17.52 41.27 26.53 H 80 C480 0
9718 H 16.51 40.17 26.11 H 80 C480 0
9719 C1 17.73 39.56 27.66 C.3 80 C480 0
9720 O2 17.94 38.44 27.19 O.3 80 C480 0
9721 O3 18.21 39.87 28.89 O.3 80 C480 0
9722 C 16.65 42.03 28.75 C.3 80 C480 0
9723 H 16 42.43 29.31 H 80 C480 0
9724 H 17.22 41.48 29.28 H 80 C480 0
9725 H 17.17 42.71 28.34 H 80 C480 0
9726 C 12.89 38.93 29.68 C.3 80 C480 0
9727 C 13.87 39.61 30.44 C.3 80 C480 0
9728 H 12.33 38.44 30.26 H 80 C480 0
9729 H 14.45 38.98 30.83 H 80 C480 0
9730 H 13.44 40.11 31.12 H 80 C480 0
9731 C1 14.66 40.55 29.52 C.3 80 C480 0
9732 O2 14.87 41.72 29.86 O.3 80 C480 0
9733 O3 15.14 40.1 28.33 O.3 80 C480 0
9734 C 13.59 37.97 28.7 C.3 80 C480 0
9735 H 12.93 37.51 28.19 H 80 C480 0
9736 H 14.15 38.46 28.12 H 80 C480 0
9737 H 14.1 37.34 29.19 H 80 C480 0
9738 C 9.83 40.95 27.43 C.3 80 C480 0
9739 C 10.8 40.19 26.76 C.3 80 C480 0
9740 H 9.26 41.37 26.8 H 80 C480 0
9741 H 11.39 40.78 26.3 H 80 C480 0
9742 H 10.37 39.61 26.14 H 80 C480 0
9743 C1 11.59 39.36 27.78 C.3 80 C480 0
9744 O2 11.8 38.16 27.56 O.3 80 C480 0
9745 O3 12.07 39.94 28.91 O.3 80 C480 0
9746 C 10.52 42.01 28.3 C.3 80 C480 0
9747 H 9.86 42.52 28.76 H 80 C480 0
9748 H 11.08 41.59 28.94 H 80 C480 0
9749 H 11.04 42.59 27.75 H 80 C480 0
9750 C 6.76 39.2 29.89 C.3 80 C480 0
9751 C 7.73 40.02 30.48 C.3 80 C480 0
9752 H 6.19 38.84 30.57 H 80 C480 0
9753 H 8.32 39.49 31 H 80 C480 0
9754 H 7.31 40.66 31.03 H 80 C480 0
9755 C1 8.53 40.74 29.37 C.3 80 C480 0
9756 O2 8.73 41.95 29.45 O.3 80 C480 0
9757 O3 9 40.04 28.31 O.3 80 C480 0
9758 C 7.45 38.04 29.14 C.3 80 C480 0
9759 H 6.79 37.48 28.75 H 80 C480 0
9760 H 8.02 38.39 28.47 H 80 C480 0
9761 H 7.97 37.53 29.76 H 80 C480 0
9762 H 3.17 40.23 27.92 H 81 C481 0
9763 C 3.69 40.66 27.25 C.3 81 C481 0
9764 C 4.66 39.78 26.76 C.3 81 C481 0
9765 H 3.13 40.94 26.54 H 81 C481 0
9766 H 5.25 40.25 26.19 H 81 C481 0
9767 H 4.24 39.08 26.28 H 81 C481 0
9768 C1 5.46 39.19 27.94 C.3 81 C481 0
9769 O2 5.67 37.98 28 O.3 81 C481 0
9770 O3 5.94 40 28.92 O.3 81 C481 0
9771 C 4.38 41.9 27.87 C.3 81 C481 0
9772 H 3.72 42.49 28.2 H 81 C481 0
9773 H 4.95 41.62 28.58 H 81 C481 0
9774 H 4.9 42.33 27.2 H 81 C481 0
9775 C 92.65 40.75 38.73 C.3 82 C482 0
9776 C 93.62 39.91 38.18 C.3 82 C482 0
9777 H 92.09 41.08 38.04 H 82 C482 0
9778 H 94.21 40.42 37.64 H 82 C482 0
9779 H 93.2 39.24 37.65 H 82 C482 0
9780 C1 94.42 39.23 39.31 C.3 82 C482 0
9781 O2 94.63 38.02 39.28 O.3 82 C482 0
9782 O3 94.9 39.97 40.34 O.3 82 C482 0
9783 H5 95.42 39.42 40.92 H 82 C482 0
9784 C 93.34 41.93 39.44 C.3 82 C482 0
9785 H 92.68 42.51 39.81 H 82 C482 0
9786 H 93.91 41.61 40.12 H 82 C482 0
9787 H 93.86 42.42 38.8 H 82 C482 0
9788 C 89.58 39.39 41.42 C.3 83 C483 0
9789 C 90.55 40.29 41.88 C.3 83 C483 0
9790 H 89.02 39.14 42.14 H 83 C483 0
9791 H 91.15 39.84 42.48 H 83 C483 0
9792 H 90.13 41.01 42.33 H 83 C483 0
9793 C1 91.35 40.83 40.68 C.3 83 C483 0
9794 O2 91.56 42.04 40.58 O.3 83 C483 0
9795 O3 91.83 39.98 39.74 O.3 83 C483 0
9796 C 90.28 38.13 40.86 C.3 83 C483 0
9797 H 89.62 37.52 40.55 H 83 C483 0
9798 H 90.84 38.38 40.14 H 83 C483 0
9799 H 90.79 37.72 41.54 H 83 C483 0
9800 C 86.52 40.45 38.6 C.3 83 C483 0
9801 C 87.49 39.5 38.24 C.3 83 C483 0
9802 H 85.95 40.61 37.85 H 83 C483 0
9803 H 88.08 39.88 37.6 H 83 C483 0
9804 H 87.06 38.74 37.87 H 83 C483 0
9805 C1 88.28 39.09 39.5 C.3 83 C483 0
9806 O2 88.49 37.9 39.73 O.3 83 C483 0
9807 O3 88.76 40.04 40.34 O.3 83 C483 0
9808 C 87.21 41.76 39.02 C.3 83 C483 0
9809 H 86.55 42.4 39.26 H 83 C483 0
9810 H 87.77 41.59 39.77 H 83 C483 0
9811 H 87.73 42.09 38.3 H 83 C483 0
9812 C 83.45 39.71 41.52 C.3 83 C483 0
9813 C 84.42 40.68 41.77 C.3 83 C483 0
9814 H 82.88 39.62 42.28 H 83 C483 0
9815 H 85.01 40.38 42.45 H 83 C483 0
9816 H 84 41.49 42.06 H 83 C483 0
9817 C1 85.22 40.96 40.48 C.3 83 C483 0
9818 O2 85.42 42.11 40.12 O.3 83 C483 0
9819 O3 85.69 39.92 39.75 O.3 83 C483 0
9820 C 84.14 38.36 41.25 C.3 83 C483 0
9821 H 83.48 37.69 41.08 H 83 C483 0
9822 H 84.71 38.44 40.49 H 83 C483 0
9823 H 84.66 38.11 42 H 83 C483 0
9824 C 80.38 40.12 38.53 C.3 83 C483 0
9825 C 81.35 39.12 38.4 C.3 83 C483 0
9826 H 79.82 40.12 37.77 H 83 C483 0
9827 H 81.94 39.35 37.69 H 83 C483 0
9828 H 80.93 38.29 38.2 H 83 C483 0
9829 C1 82.15 38.99 39.71 C.3 83 C483 0
9830 O2 82.36 37.88 40.2 O.3 83 C483 0
9831 O3 82.63 40.11 40.32 O.3 83 C483 0
9832 C 81.07 41.49 38.66 C.3 83 C483 0
9833 H 80.41 42.17 38.76 H 83 C483 0
9834 H 81.64 41.49 39.42 H 83 C483 0
9835 H 81.59 41.66 37.88 H 83 C483 0
9836 C 77.31 40.04 41.55 C.3 83 C483 0
9837 C 78.28 41.05 41.58 C.3 83 C483 0
9838 H 76.75 40.12 42.31 H 83 C483 0
9839 H 78.88 40.9 42.31 H 83 C483 0
9840 H 77.86 41.89 41.68 H 83 C483 0
9841 C1 79.08 41.03 40.26 C.3 83 C483 0
9842 O2 79.29 42.08 39.65 O.3 83 C483 0
9843 O3 79.56 39.85 39.77 O.3 83 C483 0
9844 C 78.01 38.66 41.58 C.3 83 C483 0
9845 H 77.35 37.98 41.56 H 83 C483 0
9846 H 78.57 38.58 40.82 H 83 C483 0
9847 H 78.52 38.58 42.37 H 83 C483 0
9848 C 74.25 39.79 38.54 C.3 83 C483 0
9849 C 75.22 38.78 38.63 C.3 83 C483 0
9850 H 73.68 39.62 37.8 H 83 C483 0
9851 H 75.81 38.84 37.89 H 83 C483 0
9852 H 74.79 37.93 38.62 H 83 C483 0
9853 C1 76.01 38.94 39.94 C.3 83 C483 0
9854 O2 76.22 37.97 40.66 O.3 83 C483 0
9855 O3 76.49 40.17 40.29 O.3 83 C483 0
9856 C 74.94 41.15 38.37 C.3 83 C483 0
9857 H 74.28 41.83 38.31 H 83 C483 0
9858 H 75.5 41.32 39.11 H 83 C483 0
9859 H 75.46 41.14 37.57 H 83 C483 0
9860 C 71.18 40.37 41.51 C.3 83 C483 0
9861 C 72.15 41.36 41.31 C.3 83 C483 0
9862 H 70.61 40.62 42.23 H 83 C483 0
9863 H 72.74 41.38 42.05 H 83 C483 0
9864 H 71.73 42.21 41.22 H 83 C483 0
9865 C1 72.95 41.05 40.03 C.3 83 C483 0
9866 O2 73.15 41.94 39.2 O.3 83 C483 0
9867 O3 73.42 39.8 39.81 O.3 83 C483 0
9868 C 71.87 39.03 41.83 C.3 83 C483 0
9869 H 71.21 38.36 41.97 H 83 C483 0
9870 H 72.44 38.79 41.11 H 83 C483 0
9871 H 72.39 39.13 42.62 H 83 C483 0
9872 C 68.11 39.46 38.63 C.3 83 C483 0
9873 C 69.08 38.5 38.93 C.3 83 C483 0
9874 H 67.55 39.13 37.94 H 83 C483 0
9875 H 69.67 38.4 38.19 H 83 C483 0
9876 H 68.66 37.67 39.11 H 83 C483 0
9877 C1 69.88 38.95 40.17 C.3 83 C483 0
9878 O2 70.09 38.16 41.09 O.3 83 C483 0
9879 O3 70.36 40.22 40.25 O.3 83 C483 0
9880 C 68.8 40.75 38.15 C.3 83 C483 0
9881 H 68.14 41.41 37.95 H 83 C483 0
9882 H 69.37 41.08 38.84 H 83 C483 0
9883 H 69.32 40.57 37.38 H 83 C483 0
9884 C 65.04 40.68 41.39 C.3 83 C483 0
9885 C 66.01 41.61 40.98 C.3 83 C483 0
9886 H 64.48 41.09 42.04 H 83 C483 0
9887 H 66.6 41.79 41.7 H 83 C483 0
9888 H 65.59 42.41 40.71 H 83 C483 0
9889 C1 66.81 41.03 39.8 C.3 83 C483 0
9890 O2 67.02 41.71 38.8 O.3 83 C483 0
9891 O3 67.29 39.75 39.86 O.3 83 C483 0
9892 C 65.74 39.45 42 C.3 83 C483 0
9893 H 65.08 38.83 42.28 H 83 C483 0
9894 H 66.3 39.05 41.35 H 83 C483 0
9895 H 66.25 39.72 42.75 H 83 C483 0
9896 C 61.98 39.17 38.78 C.3 83 C483 0
9897 C 62.95 38.29 39.29 C.3 83 C483 0
9898 H 61.41 38.69 38.18 H 83 C483 0
9899 H 63.54 38.03 38.59 H 83 C483 0
9900 H 62.52 37.52 39.65 H 83 C483 0
9901 C1 63.74 39 40.4 C.3 83 C483 0
9902 O2 63.95 38.43 41.47 O.3 83 C483 0
9903 O3 64.22 40.26 40.2 O.3 83 C483 0
9904 C 62.67 40.32 38.03 C.3 83 C483 0
9905 H 62.01 40.91 37.69 H 83 C483 0
9906 H 63.23 40.79 38.63 H 83 C483 0
9907 H 63.19 39.97 37.32 H 83 C483 0
9908 C 58.91 40.96 41.2 C.3 83 C483 0
9909 C 59.88 41.77 40.6 C.3 83 C483 0
9910 H 58.34 41.5 41.75 H 83 C483 0
9911 H 60.47 42.11 41.27 H 83 C483 0
9912 H 59.46 42.5 40.16 H 83 C483 0
9913 C1 60.68 40.95 39.58 C.3 83 C483 0
9914 O2 60.88 41.4 38.45 O.3 83 C483 0
9915 O3 61.15 39.72 39.92 O.3 83 C483 0
9916 C 59.6 39.9 42.07 C.3 83 C483 0
9917 H 58.94 39.35 42.48 H 83 C483 0
9918 H 60.17 39.36 41.53 H 83 C483 0
9919 H 60.12 40.32 42.75 H 83 C483 0
9920 C 55.84 38.91 38.99 C.3 83 C483 0
9921 C 56.81 38.17 39.68 C.3 83 C483 0
9922 H 55.27 38.32 38.51 H 83 C483 0
9923 H 57.4 37.76 39.06 H 83 C483 0
9924 H 56.39 37.5 40.2 H 83 C483 0
9925 C1 57.61 39.1 40.61 C.3 83 C483 0
9926 O2 57.81 38.78 41.78 O.3 83 C483 0
9927 O3 58.09 40.29 40.13 O.3 83 C483 0
9928 C 56.53 39.87 38.01 C.3 83 C483 0
9929 H 55.87 40.38 37.55 H 83 C483 0
9930 H 57.1 40.46 38.49 H 83 C483 0
9931 H 57.05 39.38 37.39 H 83 C483 0
9932 C 52.77 41.2 40.96 C.3 83 C483 0
9933 C 53.74 41.86 40.2 C.3 83 C483 0
9934 H 52.21 41.84 41.38 H 83 C483 0
9935 H 54.33 42.33 40.77 H 83 C483 0
9936 H 53.32 42.47 39.61 H 83 C483 0
9937 C1 54.54 40.82 39.38 C.3 83 C483 0
9938 O2 54.75 41.01 38.18 O.3 83 C483 0
9939 O3 55.02 39.7 39.98 O.3 83 C483 0
9940 C 53.46 40.35 42.05 C.3 83 C483 0
9941 H 52.81 39.9 42.56 H 83 C483 0
9942 H 54.03 39.71 41.63 H 83 C483 0
9943 H 53.98 40.91 42.61 H 83 C483 0
9944 C 49.71 38.71 39.26 C.3 83 C483 0
9945 C 50.68 38.13 40.09 C.3 83 C483 0
9946 H 49.14 38.02 38.92 H 83 C483 0
9947 H 51.27 37.6 39.57 H 83 C483 0
9948 H 50.25 37.59 40.75 H 83 C483 0
9949 C1 51.47 39.25 40.79 C.3 83 C483 0
9950 O2 51.68 39.2 42 O.3 83 C483 0
9951 O3 51.95 40.3 40.07 O.3 83 C483 0
9952 C 50.4 39.43 38.09 C.3 83 C483 0
9953 H 49.74 39.82 37.52 H 83 C483 0
9954 H 50.96 40.11 38.43 H 83 C483 0
9955 H 50.91 38.81 37.59 H 83 C483 0
9956 C 46.64 41.37 40.68 C.3 83 C483 0
9957 C 47.61 41.85 39.79 C.3 83 C483 0
9958 H 46.07 42.09 40.94 H 83 C483 0
9959 H 48.2 42.43 40.24 H 83 C483 0
9960 H 47.19 42.31 39.08 H 83 C483 0
9961 C1 48.41 40.66 39.22 C.3 83 C483 0
9962 O2 48.61 40.58 38.01 O.3 83 C483 0
9963 O3 48.88 39.69 40.05 O.3 83 C483 0
9964 C 47.33 40.78 41.92 C.3 83 C483 0
9965 H 46.67 40.46 42.52 H 83 C483 0
9966 H 47.9 40.06 41.66 H 83 C483 0
9967 H 47.85 41.45 42.34 H 83 C483 0
9968 C 43.57 38.57 39.56 C.3 83 C483 0
9969 C 44.54 38.19 40.5 C.3 83 C483 0
9970 H 43.01 37.82 39.38 H 83 C483 0
9971 H 45.13 37.56 40.11 H 83 C483 0
9972 H 44.12 37.81 41.26 H 83 C483 0
9973 C1 45.34 39.44 40.94 C.3 83 C483 0
9974 O2 45.54 39.65 42.13 O.3 83 C483 0
9975 O3 45.82 40.3 40 O.3 83 C483 0
9976 C 44.26 39.02 38.26 C.3 83 C483 0
9977 H 43.6 39.27 37.63 H 83 C483 0
9978 H 44.83 39.76 38.44 H 83 C483 0
9979 H 44.78 38.3 37.91 H 83 C483 0
9980 C 40.5 41.48 40.36 C.3 83 C483 0
9981 C 41.47 41.74 39.39 C.3 83 C483 0
9982 H 39.94 42.23 40.46 H 83 C483 0
9983 H 42.06 42.42 39.7 H 83 C483 0
9984 H 41.05 42.04 38.59 H 83 C483 0
9985 C1 42.27 40.46 39.09 C.3 83 C483 0
9986 O2 42.48 40.12 37.93 O.3 83 C483 0
9987 O3 42.75 39.7 40.12 O.3 83 C483 0
9988 C 41.19 41.17 41.7 C.3 83 C483 0
9989 H 40.54 40.99 42.36 H 83 C483 0
9990 H 41.76 40.42 41.6 H 83 C483 0
9991 H 41.71 41.92 41.97 H 83 C483 0
9992 C 37.44 38.5 39.89 C.3 83 C483 0
9993 C 38.41 38.34 40.89 C.3 83 C483 0
9994 H 36.87 37.73 39.88 H 83 C483 0
9995 H 39 37.63 40.65 H 83 C483 0
9996 H 37.98 38.13 41.71 H 83 C483 0
9997 C1 39.2 39.65 41.04 C.3 83 C483 0
9998 O2 39.41 40.12 42.16 O.3 83 C483 0
9999 O3 39.68 40.29 39.94 O.3 83 C483 0
10000 C 38.13 38.65 38.52 C.3 83 C483 0
10001 H 37.47 38.76 37.85 H 83 C483 0
10002 H 38.69 39.41 38.54 H 83 C483 0
10003 H 38.64 37.87 38.34 H 83 C483 0
10004 C 34.37 41.51 40.03 C.3 83 C483 0
10005 C 35.34 41.56 39.02 C.3 83 C483 0
10006 H 33.8 42.27 39.96 H 83 C483 0
10007 H 35.93 42.28 39.18 H 83 C483 0
10008 H 34.91 41.67 38.18 H 83 C483 0
10009 C1 36.14 40.24 39.01 C.3 83 C483 0
10010 O2 36.34 39.65 37.95 O.3 83 C483 0
10011 O3 36.61 39.73 40.18 O.3 83 C483 0
10012 C 35.06 41.51 41.4 C.3 83 C483 0
10013 H 34.4 41.48 42.09 H 83 C483 0
10014 H 35.62 40.75 41.47 H 83 C483 0
10015 H 35.58 42.3 41.5 H 83 C483 0
10016 C 31.3 38.5 40.23 C.3 83 C483 0
10017 C 32.27 38.57 41.23 C.3 83 C483 0
10018 H 30.73 37.75 40.38 H 83 C483 0
10019 H 32.86 37.82 41.15 H 83 C483 0
10020 H 31.85 38.54 42.08 H 83 C483 0
10021 C1 33.07 39.88 41.09 C.3 83 C483 0
10022 O2 33.27 40.58 42.08 O.3 83 C483 0
10023 O3 33.54 40.25 39.88 O.3 83 C483 0
10024 C 31.99 38.35 38.86 C.3 83 C483 0
10025 H 31.33 38.3 38.17 H 83 C483 0
10026 H 32.56 39.1 38.7 H 83 C483 0
10027 H 32.51 37.55 38.85 H 83 C483 0
10028 C 28.23 41.47 39.7 C.3 83 C483 0
10029 C 29.2 41.3 38.7 C.3 83 C483 0
10030 H 27.67 42.2 39.46 H 83 C483 0
10031 H 29.79 42.04 38.7 H 83 C483 0
10032 H 28.78 41.22 37.86 H 83 C483 0
10033 C1 30 40.01 38.99 C.3 83 C483 0
10034 O2 30.21 39.2 38.08 O.3 83 C483 0
10035 O3 30.48 39.77 40.24 O.3 83 C483 0
10036 C 28.92 41.77 41.04 C.3 83 C483 0
10037 H 28.27 41.89 41.71 H 83 C483 0
10038 H 29.49 41.05 41.27 H 83 C483 0
10039 H 29.44 42.57 40.96 H 83 C483 0
10040 C 25.17 38.58 40.55 C.3 83 C483 0
10041 C 26.14 38.86 41.52 C.3 83 C483 0
10042 H 24.6 37.88 40.87 H 83 C483 0
10043 H 26.73 38.12 41.6 H 83 C483 0
10044 H 25.71 39.03 42.35 H 83 C483 0
10045 C1 26.93 40.11 41.09 C.3 83 C483 0
10046 O2 27.14 41.01 41.9 O.3 83 C483 0
10047 O3 27.41 40.21 39.83 O.3 83 C483 0
10048 C 25.86 38.13 39.25 C.3 83 C483 0
10049 H 25.2 37.94 38.59 H 83 C483 0
10050 H 26.42 38.82 38.94 H 83 C483 0
10051 H 26.37 37.35 39.42 H 83 C483 0
10052 C 22.1 41.36 39.38 C.3 83 C483 0
10053 C 23.07 40.97 38.45 C.3 83 C483 0
10054 H 21.53 42.02 38.99 H 83 C483 0
10055 H 23.66 41.69 38.28 H 83 C483 0
10056 H 22.64 40.71 37.64 H 83 C483 0
10057 C1 23.87 39.78 39.01 C.3 83 C483 0
10058 O2 24.07 38.79 38.31 O.3 83 C483 0
10059 O3 24.34 39.81 40.28 O.3 83 C483 0
10060 C 22.79 41.95 40.63 C.3 83 C483 0
10061 H 22.13 42.22 41.26 H 83 C483 0
10062 H 23.35 41.29 41.01 H 83 C483 0
10063 H 23.31 42.71 40.37 H 83 C483 0
10064 C 19.03 38.72 40.85 C.3 83 C483 0
10065 C 20 39.22 41.73 C.3 83 C483 0
10066 H 18.46 38.12 41.31 H 83 C483 0
10067 H 20.59 38.51 41.98 H 83 C483 0
10068 H 19.58 39.56 42.51 H 83 C483 0
10069 C1 20.8 40.34 41.04 C.3 83 C483 0
10070 O2 21 41.4 41.64 O.3 83 C483 0
10071 O3 21.27 40.16 39.78 O.3 83 C483 0
10072 C 19.72 38 39.68 C.3 83 C483 0
10073 H 19.06 37.67 39.08 H 83 C483 0
10074 H 20.29 38.61 39.22 H 83 C483 0
10075 H 20.24 37.28 40.02 H 83 C483 0
10076 C 15.96 41.18 39.1 C.3 83 C483 0
10077 C 16.93 40.6 38.28 C.3 83 C483 0
10078 H 15.4 41.74 38.58 H 83 C483 0
10079 H 17.52 41.27 37.96 H 83 C483 0
10080 H 16.51 40.17 37.54 H 83 C483 0
10081 C1 17.73 39.56 39.09 C.3 83 C483 0
10082 O2 17.94 38.44 38.62 O.3 83 C483 0
10083 O3 18.21 39.87 40.32 O.3 83 C483 0
10084 C 16.65 42.03 40.18 C.3 83 C483 0
10085 H 16 42.43 40.74 H 83 C483 0
10086 H 17.22 41.48 40.71 H 83 C483 0
10087 H 17.17 42.71 39.77 H 83 C483 0
10088 C 12.89 38.93 41.11 C.3 83 C483 0
10089 C 13.87 39.61 41.87 C.3 83 C483 0
10090 H 12.33 38.44 41.69 H 83 C483 0
10091 H 14.45 38.98 42.26 H 83 C483 0
10092 H 13.44 40.11 42.55 H 83 C483 0
10093 C1 14.66 40.55 40.95 C.3 83 C483 0
10094 O2 14.87 41.72 41.29 O.3 83 C483 0
10095 O3 15.14 40.1 39.76 O.3 83 C483 0
10096 C 13.59 37.97 40.13 C.3 83 C483 0
10097 H 12.93 37.51 39.62 H 83 C483 0
10098 H 14.15 38.46 39.55 H 83 C483 0
10099 H 14.1 37.34 40.62 H 83 C483 0
10100 C 9.83 40.95 38.86 C.3 83 C483 0
10101 C 10.8 40.19 38.19 C.3 83 C483 0
10102 H 9.26 41.37 38.23 H 83 C483 0
10103 H 11.39 40.78 37.73 H 83 C483 0
10104 H 10.37 39.61 37.57 H 83 C483 0
10105 C1 11.59 39.36 39.21 C.3 83 C483 0
10106 O2 11.8 38.16 38.99 O.3 83 C483 0
10107 O3 12.07 39.94 40.34 O.3 83 C483 0
10108 C 10.52 42.01 39.73 C.3 83 C483 0
10109 H 9.86 42.52 40.19 H 83 C483 0
10110 H 11.08 41.59 40.37 H 83 C483 0
10111 H 11.04 42.59 39.18 H 83 C483 0
10112 C 6.76 39.2 41.32 C.3 83 C483 0
10113 C 7.73 40.02 41.91 C.3 83 C483 0
10114 H 6.19 38.84 42 H 83 C483 0
10115 H 8.32 39.49 42.43 H 83 C483 0
10116 H 7.31 40.66 42.46 H 83 C483 0
10117 C1 8.53 40.74 40.8 C.3 83 C483 0
10118 O2 8.73 41.95 40.88 O.3 83 C483 0
10119 O3 9 40.04 39.74 O.3 83 C483 0
10120 C 7.45 38.04 40.57 C.3 83 C483 0
10121 H 6.79 37.48 40.18 H 83 C483 0
10122 H 8.02 38.39 39.9 H 83 C483 0
10123 H 7.97 37.53 41.19 H 83 C483 0
10124 H 3.17 40.23 39.35 H 84 C484 0
10125 C 3.69 40.66 38.68 C.3 84 C484 0
10126 C 4.66 39.78 38.19 C.3 84 C484 0
10127 H 3.13 40.94 37.97 H 84 C484 0
10128 H 5.25 40.25 37.62 H 84 C484 0
10129 H 4.24 39.08 37.71 H 84 C484 0
10130 C1 5.46 39.19 39.37 C.3 84 C484 0
10131 O2 5.67 37.98 39.43 O.3 84 C484 0
10132 O3 5.94 40 40.35 O.3 84 C484 0
10133 C 4.38 41.9 39.3 C.3 84 C484 0
10134 H 3.72 42.49 39.63 H 84 C484 0
10135 H 4.95 41.62 40.01 H 84 C484 0
10136 H 4.9 42.33 38.63 H 84 C484 0
10137 C 92.65 40.75 50.17 C.3 85 C485 0
10138 C 93.62 39.91 49.62 C.3 85 C485 0
10139 H 92.09 41.08 49.48 H 85 C485 0
10140 H 94.21 40.42 49.08 H 85 C485 0
10141 H 93.2 39.24 49.09 H 85 C485 0
10142 C1 94.42 39.23 50.75 C.3 85 C485 0
10143 O2 94.63 38.02 50.72 O.3 85 C485 0
10144 O3 94.9 39.97 51.78 O.3 85 C485 0
10145 H5 95.42 39.42 52.36 H 85 C485 0
10146 C 93.34 41.93 50.88 C.3 85 C485 0
10147 H 92.68 42.51 51.25 H 85 C485 0
10148 H 93.91 41.61 51.56 H 85 C485 0
10149 H 93.86 42.42 50.24 H 85 C485 0
10150 C 89.58 39.39 52.86 C.3 86 C486 0
10151 C 90.55 40.29 53.32 C.3 86 C486 0
10152 H 89.02 39.14 53.58 H 86 C486 0
10153 H 91.15 39.84 53.92 H 86 C486 0
10154 H 90.13 41.01 53.77 H 86 C486 0
10155 C1 91.35 40.83 52.12 C.3 86 C486 0
10156 O2 91.56 42.04 52.02 O.3 86 C486 0
10157 O3 91.83 39.98 51.18 O.3 86 C486 0
10158 C 90.28 38.13 52.3 C.3 86 C486 0
10159 H 89.62 37.52 51.99 H 86 C486 0
10160 H 90.84 38.38 51.58 H 86 C486 0
10161 H 90.79 37.72 52.98 H 86 C486 0
10162 C 86.52 40.45 50.04 C.3 86 C486 0
10163 C 87.49 39.5 49.68 C.3 86 C486 0
10164 H 85.95 40.61 49.29 H 86 C486 0
10165 H 88.08 39.88 49.04 H 86 C486 0
10166 H 87.06 38.74 49.31 H 86 C486 0
10167 C1 88.28 39.09 50.94 C.3 86 C486 0
10168 O2 88.49 37.9 51.17 O.3 86 C486 0
10169 O3 88.76 40.04 51.78 O.3 86 C486 0
10170 C 87.21 41.76 50.46 C.3 86 C486 0
10171 H 86.55 42.4 50.7 H 86 C486 0
10172 H 87.77 41.59 51.21 H 86 C486 0
10173 H 87.73 42.09 49.74 H 86 C486 0
10174 C 83.45 39.71 52.96 C.3 86 C486 0
10175 C 84.42 40.68 53.21 C.3 86 C486 0
10176 H 82.88 39.62 53.72 H 86 C486 0
10177 H 85.01 40.38 53.89 H 86 C486 0
10178 H 84 41.49 53.5 H 86 C486 0
10179 C1 85.22 40.96 51.92 C.3 86 C486 0
10180 O2 85.42 42.11 51.56 O.3 86 C486 0
10181 O3 85.69 39.92 51.19 O.3 86 C486 0
10182 C 84.14 38.36 52.69 C.3 86 C486 0
10183 H 83.48 37.69 52.52 H 86 C486 0
10184 H 84.71 38.44 51.93 H 86 C486 0
10185 H 84.66 38.11 53.44 H 86 C486 0
10186 C 80.38 40.12 49.97 C.3 86 C486 0
10187 C 81.35 39.12 49.84 C.3 86 C486 0
10188 H 79.82 40.12 49.21 H 86 C486 0
10189 H 81.94 39.35 49.13 H 86 C486 0
10190 H 80.93 38.29 49.64 H 86 C486 0
10191 C1 82.15 38.99 51.15 C.3 86 C486 0
10192 O2 82.36 37.88 51.64 O.3 86 C486 0
10193 O3 82.63 40.11 51.76 O.3 86 C486 0
10194 C 81.07 41.49 50.1 C.3 86 C486 0
10195 H 80.41 42.17 50.2 H 86 C486 0
10196 H 81.64 41.49 50.86 H 86 C486 0
10197 H 81.59 41.66 49.32 H 86 C486 0
10198 C 77.31 40.04 52.99 C.3 86 C486 0
10199 C 78.28 41.05 53.02 C.3 86 C486 0
10200 H 76.75 40.12 53.75 H 86 C486 0
10201 H 78.88 40.9 53.75 H 86 C486 0
10202 H 77.86 41.89 53.12 H 86 C486 0
10203 C1 79.08 41.03 51.7 C.3 86 C486 0
10204 O2 79.29 42.08 51.09 O.3 86 C486 0
10205 O3 79.56 39.85 51.21 O.3 86 C486 0
10206 C 78.01 38.66 53.02 C.3 86 C486 0
10207 H 77.35 37.98 53 H 86 C486 0
10208 H 78.57 38.58 52.26 H 86 C486 0
10209 H 78.52 38.58 53.81 H 86 C486 0
10210 C 74.25 39.79 49.98 C.3 86 C486 0
10211 C 75.22 38.78 50.07 C.3 86 C486 0
10212 H 73.68 39.62 49.24 H 86 C486 0
10213 H 75.81 38.84 49.33 H 86 C486 0
10214 H 74.79 37.93 50.06 H 86 C486 0
10215 C1 76.01 38.94 51.38 C.3 86 C486 0
10216 O2 76.22 37.97 52.1 O.3 86 C486 0
10217 O3 76.49 40.17 51.73 O.3 86 C486 0
10218 C 74.94 41.15 49.81 C.3 86 C486 0
10219 H 74.28 41.83 49.75 H 86 C486 0
10220 H 75.5 41.32 50.55 H 86 C486 0
10221 H 75.46 41.14 49.01 H 86 C486 0
10222 C 71.18 40.37 52.95 C.3 86 C486 0
10223 C 72.15 41.36 52.75 C.3 86 C486 0
10224 H 70.61 40.62 53.67 H 86 C486 0
10225 H 72.74 41.38 53.49 H 86 C486 0
10226 H 71.73 42.21 52.66 H 86 C486 0
10227 C1 72.95 41.05 51.47 C.3 86 C486 0
10228 O2 73.15 41.94 50.64 O.3 86 C486 0
10229 O3 73.42 39.8 51.25 O.3 86 C486 0
10230 C 71.87 39.03 53.27 C.3 86 C486 0
10231 H 71.21 38.36 53.41 H 86 C486 0
10232 H 72.44 38.79 52.55 H 86 C486 0
10233 H 72.39 39.13 54.06 H 86 C486 0
10234 C 68.11 39.46 50.07 C.3 86 C486 0
10235 C 69.08 38.5 50.37 C.3 86 C486 0
10236 H 67.55 39.13 49.38 H 86 C486 0
10237 H 69.67 38.4 49.63 H 86 C486 0
10238 H 68.66 37.67 50.55 H 86 C486 0
10239 C1 69.88 38.95 51.61 C.3 86 C486 0
10240 O2 70.09 38.16 52.53 O.3 86 C486 0
10241 O3 70.36 40.22 51.69 O.3 86 C486 0
10242 C 68.8 40.75 49.59 C.3 86 C486 0
10243 H 68.14 41.41 49.39 H 86 C486 0
10244 H 69.37 41.08 50.28 H 86 C486 0
10245 H 69.32 40.57 48.82 H 86 C486 0
10246 C 65.04 40.68 52.83 C.3 86 C486 0
10247 C 66.01 41.61 52.42 C.3 86 C486 0
10248 H 64.48 41.09 53.48 H 86 C486 0
10249 H 66.6 41.79 53.14 H 86 C486 0
10250 H 65.59 42.41 52.15 H 86 C486 0
10251 C1 66.81 41.03 51.24 C.3 86 C486 0
10252 O2 67.02 41.71 50.24 O.3 86 C486 0
10253 O3 67.29 39.75 51.3 O.3 86 C486 0
10254 C 65.74 39.45 53.44 C.3 86 C486 0
10255 H 65.08 38.83 53.72 H 86 C486 0
10256 H 66.3 39.05 52.79 H 86 C486 0
10257 H 66.25 39.72 54.19 H 86 C486 0
10258 C 61.98 39.17 50.22 C.3 86 C486 0
10259 C 62.95 38.29 50.73 C.3 86 C486 0
10260 H 61.41 38.69 49.62 H 86 C486 0
10261 H 63.54 38.03 50.03 H 86 C486 0
10262 H 62.52 37.52 51.09 H 86 C486 0
10263 C1 63.74 39 51.84 C.3 86 C486 0
10264 O2 63.95 38.43 52.91 O.3 86 C486 0
10265 O3 64.22 40.26 51.64 O.3 86 C486 0
10266 C 62.67 40.32 49.47 C.3 86 C486 0
10267 H 62.01 40.91 49.13 H 86 C486 0
10268 H 63.23 40.79 50.07 H 86 C486 0
10269 H 63.19 39.97 48.76 H 86 C486 0
10270 C 58.91 40.96 52.64 C.3 86 C486 0
10271 C 59.88 41.77 52.04 C.3 86 C486 0
10272 H 58.34 41.5 53.19 H 86 C486 0
10273 H 60.47 42.11 52.71 H 86 C486 0
10274 H 59.46 42.5 51.6 H 86 C486 0
10275 C1 60.68 40.95 51.02 C.3 86 C486 0
10276 O2 60.88 41.4 49.89 O.3 86 C486 0
10277 O3 61.15 39.72 51.36 O.3 86 C486 0
10278 C 59.6 39.9 53.51 C.3 86 C486 0
10279 H 58.94 39.35 53.92 H 86 C486 0
10280 H 60.17 39.36 52.97 H 86 C486 0
10281 H 60.12 40.32 54.19 H 86 C486 0
10282 C 55.84 38.91 50.43 C.3 86 C486 0
10283 C 56.81 38.17 51.12 C.3 86 C486 0
10284 H 55.27 38.32 49.95 H 86 C486 0
10285 H 57.4 37.76 50.5 H 86 C486 0
10286 H 56.39 37.5 51.64 H 86 C486 0
10287 C1 57.61 39.1 52.05 C.3 86 C486 0
10288 O2 57.81 38.78 53.22 O.3 86 C486 0
10289 O3 58.09 40.29 51.57 O.3 86 C486 0
10290 C 56.53 39.87 49.45 C.3 86 C486 0
10291 H 55.87 40.38 48.99 H 86 C486 0
10292 H 57.1 40.46 49.93 H 86 C486 0
10293 H 57.05 39.38 48.83 H 86 C486 0
10294 C 52.77 41.2 52.4 C.3 86 C486 0
10295 C 53.74 41.86 51.64 C.3 86 C486 0
10296 H 52.21 41.84 52.82 H 86 C486 0
10297 H 54.33 42.33 52.21 H 86 C486 0
10298 H 53.32 42.47 51.05 H 86 C486 0
10299 C1 54.54 40.82 50.82 C.3 86 C486 0
10300 O2 54.75 41.01 49.62 O.3 86 C486 0
10301 O3 55.02 39.7 51.42 O.3 86 C486 0
10302 C 53.46 40.35 53.49 C.3 86 C486 0
10303 H 52.81 39.9 54 H 86 C486 0
10304 H 54.03 39.71 53.07 H 86 C486 0
10305 H 53.98 40.91 54.05 H 86 C486 0
10306 C 49.71 38.71 50.7 C.3 86 C486 0
10307 C 50.68 38.13 51.53 C.3 86 C486 0
10308 H 49.14 38.02 50.36 H 86 C486 0
10309 H 51.27 37.6 51.01 H 86 C486 0
10310 H 50.25 37.59 52.19 H 86 C486 0
10311 C1 51.47 39.25 52.23 C.3 86 C486 0
10312 O2 51.68 39.2 53.44 O.3 86 C486 0
10313 O3 51.95 40.3 51.51 O.3 86 C486 0
10314 C 50.4 39.43 49.53 C.3 86 C486 0
10315 H 49.74 39.82 48.96 H 86 C486 0
10316 H 50.96 40.11 49.87 H 86 C486 0
10317 H 50.91 38.81 49.03 H 86 C486 0
10318 C 46.64 41.37 52.12 C.3 86 C486 0
10319 C 47.61 41.85 51.23 C.3 86 C486 0
10320 H 46.07 42.09 52.38 H 86 C486 0
10321 H 48.2 42.43 51.68 H 86 C486 0
10322 H 47.19 42.31 50.52 H 86 C486 0
10323 C1 48.41 40.66 50.66 C.3 86 C486 0
10324 O2 48.61 40.58 49.45 O.3 86 C486 0
10325 O3 48.88 39.69 51.49 O.3 86 C486 0
10326 C 47.33 40.78 53.36 C.3 86 C486 0
10327 H 46.67 40.46 53.96 H 86 C486 0
10328 H 47.9 40.06 53.1 H 86 C486 0
10329 H 47.85 41.45 53.78 H 86 C486 0
10330 C 43.57 38.57 51 C.3 86 C486 0
10331 C 44.54 38.19 51.94 C.3 86 C486 0
10332 H 43.01 37.82 50.82 H 86 C486 0
10333 H 45.13 37.56 51.55 H 86 C486 0
10334 H 44.12 37.81 52.7 H 86 C486 0
10335 C1 45.34 39.44 52.38 C.3 86 C486 0
10336 O2 45.54 39.65 53.57 O.3 86 C486 0
10337 O3 45.82 40.3 51.44 O.3 86 C486 0
10338 C 44.26 39.02 49.7 C.3 86 C486 0
10339 H 43.6 39.27 49.07 H 86 C486 0
10340 H 44.83 39.76 49.88 H 86 C486 0
10341 H 44.78 38.3 49.35 H 86 C486 0
10342 C 40.5 41.48 51.8 C.3 86 C486 0
10343 C 41.47 41.74 50.83 C.3 86 C486 0
10344 H 39.94 42.23 51.9 H 86 C486 0
10345 H 42.06 42.42 51.14 H 86 C486 0
10346 H 41.05 42.04 50.03 H 86 C486 0
10347 C1 42.27 40.46 50.53 C.3 86 C486 0
10348 O2 42.48 40.12 49.37 O.3 86 C486 0
10349 O3 42.75 39.7 51.56 O.3 86 C486 0
10350 C 41.19 41.17 53.14 C.3 86 C486 0
10351 H 40.54 40.99 53.8 H 86 C486 0
10352 H 41.76 40.42 53.04 H 86 C486 0
10353 H 41.71 41.92 53.41 H 86 C486 0
10354 C 37.44 38.5 51.33 C.3 86 C486 0
10355 C 38.41 38.34 52.33 C.3 86 C486 0
10356 H 36.87 37.73 51.32 H 86 C486 0
10357 H 39 37.63 52.09 H 86 C486 0
10358 H 37.98 38.13 53.15 H 86 C486 0
10359 C1 39.2 39.65 52.48 C.3 86 C486 0
10360 O2 39.41 40.12 53.6 O.3 86 C486 0
10361 O3 39.68 40.29 51.38 O.3 86 C486 0
10362 C 38.13 38.65 49.96 C.3 86 C486 0
10363 H 37.47 38.76 49.29 H 86 C486 0
10364 H 38.69 39.41 49.98 H 86 C486 0
10365 H 38.64 37.87 49.78 H 86 C486 0
10366 C 34.37 41.51 51.47 C.3 86 C486 0
10367 C 35.34 41.56 50.46 C.3 86 C486 0
10368 H 33.8 42.27 51.4 H 86 C486 0
10369 H 35.93 42.28 50.62 H 86 C486 0
10370 H 34.91 41.67 49.62 H 86 C486 0
10371 C1 36.14 40.24 50.45 C.3 86 C486 0
10372 O2 36.34 39.65 49.39 O.3 86 C486 0
10373 O3 36.61 39.73 51.62 O.3 86 C486 0
10374 C 35.06 41.51 52.84 C.3 86 C486 0
10375 H 34.4 41.48 53.53 H 86 C486 0
10376 H 35.62 40.75 52.91 H 86 C486 0
10377 H 35.58 42.3 52.94 H 86 C486 0
10378 C 31.3 38.5 51.67 C.3 86 C486 0
10379 C 32.27 38.57 52.67 C.3 86 C486 0
10380 H 30.73 37.75 51.82 H 86 C486 0
10381 H 32.86 37.82 52.59 H 86 C486 0
10382 H 31.85 38.54 53.52 H 86 C486 0
10383 C1 33.07 39.88 52.53 C.3 86 C486 0
10384 O2 33.27 40.58 53.52 O.3 86 C486 0
10385 O3 33.54 40.25 51.32 O.3 86 C486 0
10386 C 31.99 38.35 50.3 C.3 86 C486 0
10387 H 31.33 38.3 49.61 H 86 C486 0
10388 H 32.56 39.1 50.14 H 86 C486 0
10389 H 32.51 37.55 50.29 H 86 C486 0
10390 C 28.23 41.47 51.14 C.3 86 C486 0
10391 C 29.2 41.3 50.14 C.3 86 C486 0
10392 H 27.67 42.2 50.9 H 86 C486 0
10393 H 29.79 42.04 50.14 H 86 C486 0
10394 H 28.78 41.22 49.3 H 86 C486 0
10395 C1 30 40.01 50.43 C.3 86 C486 0
10396 O2 30.21 39.2 49.52 O.3 86 C486 0
10397 O3 30.48 39.77 51.68 O.3 86 C486 0
10398 C 28.92 41.77 52.48 C.3 86 C486 0
10399 H 28.27 41.89 53.15 H 86 C486 0
10400 H 29.49 41.05 52.71 H 86 C486 0
10401 H 29.44 42.57 52.4 H 86 C486 0
10402 C 25.17 38.58 51.99 C.3 86 C486 0
10403 C 26.14 38.86 52.96 C.3 86 C486 0
10404 H 24.6 37.88 52.31 H 86 C486 0
10405 H 26.73 38.12 53.04 H 86 C486 0
10406 H 25.71 39.03 53.79 H 86 C486 0
10407 C1 26.93 40.11 52.53 C.3 86 C486 0
10408 O2 27.14 41.01 53.34 O.3 86 C486 0
10409 O3 27.41 40.21 51.27 O.3 86 C486 0
10410 C 25.86 38.13 50.69 C.3 86 C486 0
10411 H 25.2 37.94 50.03 H 86 C486 0
10412 H 26.42 38.82 50.38 H 86 C486 0
10413 H 26.37 37.35 50.86 H 86 C486 0
10414 C 22.1 41.36 50.82 C.3 86 C486 0
10415 C 23.07 40.97 49.89 C.3 86 C486 0
10416 H 21.53 42.02 50.43 H 86 C486 0
10417 H 23.66 41.69 49.72 H 86 C486 0
10418 H 22.64 40.71 49.08 H 86 C486 0
10419 C1 23.87 39.78 50.45 C.3 86 C486 0
10420 O2 24.07 38.79 49.75 O.3 86 C486 0
10421 O3 24.34 39.81 51.72 O.3 86 C486 0
10422 C 22.79 41.95 52.07 C.3 86 C486 0
10423 H 22.13 42.22 52.7 H 86 C486 0
10424 H 23.35 41.29 52.45 H 86 C486 0
10425 H 23.31 42.71 51.81 H 86 C486 0
10426 C 19.03 38.72 52.29 C.3 86 C486 0
10427 C 20 39.22 53.17 C.3 86 C486 0
10428 H 18.46 38.12 52.75 H 86 C486 0
10429 H 20.59 38.51 53.42 H 86 C486 0
10430 H 19.58 39.56 53.95 H 86 C486 0
10431 C1 20.8 40.34 52.48 C.3 86 C486 0
10432 O2 21 41.4 53.08 O.3 86 C486 0
10433 O3 21.27 40.16 51.22 O.3 86 C486 0
10434 C 19.72 38 51.12 C.3 86 C486 0
10435 H 19.06 37.67 50.52 H 86 C486 0
10436 H 20.29 38.61 50.66 H 86 C486 0
10437 H 20.24 37.28 51.46 H 86 C486 0
10438 C 15.96 41.18 50.54 C.3 86 C486 0
10439 C 16.93 40.6 49.72 C.3 86 C486 0
10440 H 15.4 41.74 50.02 H 86 C486 0
10441 H 17.52 41.27 49.4 H 86 C486 0
10442 H 16.51 40.17 48.98 H 86 C486 0
10443 C1 17.73 39.56 50.53 C.3 86 C486 0
10444 O2 17.94 38.44 50.06 O.3 86 C486 0
10445 O3 18.21 39.87 51.76 O.3 86 C486 0
10446 C 16.65 42.03 51.62 C.3 86 C486 0
10447 H 16 42.43 52.18 H 86 C486 0
10448 H 17.22 41.48 52.15 H 86 C486 0
10449 H 17.17 42.71 51.21 H 86 C486 0
10450 C 12.89 38.93 52.55 C.3 86 C486 0
10451 C 13.87 39.61 53.31 C.3 86 C486 0
10452 H 12.33 38.44 53.13 H 86 C486 0
10453 H 14.45 38.98 53.7 H 86 C486 0
10454 H 13.44 40.11 53.99 H 86 C486 0
10455 C1 14.66 40.55 52.39 C.3 86 C486 0
10456 O2 14.87 41.72 52.73 O.3 86 C486 0
10457 O3 15.14 40.1 51.2 O.3 86 C486 0
10458 C 13.59 37.97 51.57 C.3 86 C486 0
10459 H 12.93 37.51 51.06 H 86 C486 0
10460 H 14.15 38.46 50.99 H 86 C486 0
10461 H 14.1 37.34 52.06 H 86 C486 0
10462 C 9.83 40.95 50.3 C.3 86 C486 0
10463 C 10.8 40.19 49.63 C.3 86 C486 0
10464 H 9.26 41.37 49.67 H 86 C486 0
10465 H 11.39 40.78 49.17 H 86 C486 0
10466 H 10.37 39.61 49.01 H 86 C486 0
10467 C1 11.59 39.36 50.65 C.3 86 C486 0
10468 O2 11.8 38.16 50.43 O.3 86 C486 0
10469 O3 12.07 39.94 51.78 O.3 86 C486 0
10470 C 10.52 42.01 51.17 C.3 86 C486 0
10471 H 9.86 42.52 51.63 H 86 C486 0
10472 H 11.08 41.59 51.81 H 86 C486 0
10473 H 11.04 42.59 50.62 H 86 C486 0
10474 C 6.76 39.2 52.76 C.3 86 C486 0
10475 C 7.73 40.02 53.35 C.3 86 C486 0
10476 H 6.19 38.84 53.44 H 86 C486 0
10477 H 8.32 39.49 53.87 H 86 C486 0
10478 H 7.31 40.66 53.9 H 86 C486 0
10479 C1 8.53 40.74 52.24 C.3 86 C486 0
10480 O2 8.73 41.95 52.32 O.3 86 C486 0
10481 O3 9 40.04 51.18 O.3 86 C486 0
10482 C 7.45 38.04 52.01 C.3 86 C486 0
10483 H 6.79 37.48 51.62 H 86 C486 0
10484 H 8.02 38.39 51.34 H 86 C486 0
10485 H 7.97 37.53 52.63 H 86 C486 0
10486 H 3.17 40.23 50.79 H 87 C487 0
10487 C 3.69 40.66 50.12 C.3 87 C487 0
10488 C 4.66 39.78 49.63 C.3 87 C487 0
10489 H 3.13 40.94 49.41 H 87 C487 0
10490 H 5.25 40.25 49.06 H 87 C487 0
10491 H 4.24 39.08 49.15 H 87 C487 0
10492 C1 5.46 39.19 50.81 C.3 87 C487 0
10493 O2 5.67 37.98 50.87 O.3 87 C487 0
10494 O3 5.94 40 51.79 O.3 87 C487 0
10495 C 4.38 41.9 50.74 C.3 87 C487 0
10496 H 3.72 42.49 51.07 H 87 C487 0
10497 H 4.95 41.62 51.45 H 87 C487 0
10498 H 4.9 42.33 50.07 H 87 C487 0
10499 C 92.65 40.75 61.6 C.3 88 C488 0
10500 C 93.62 39.91 61.05 C.3 88 C488 0
10501 H 92.09 41.08 60.91 H 88 C488 0
10502 H 94.21 40.42 60.51 H 88 C488 0
10503 H 93.2 39.24 60.52 H 88 C488 0
10504 C1 94.42 39.23 62.18 C.3 88 C488 0
10505 O2 94.63 38.02 62.15 O.3 88 C488 0
10506 O3 94.9 39.97 63.21 O.3 88 C488 0
10507 H5 95.42 39.42 63.79 H 88 C488 0
10508 C 93.34 41.93 62.31 C.3 88 C488 0
10509 H 92.68 42.51 62.68 H 88 C488 0
10510 H 93.91 41.61 62.99 H 88 C488 0
10511 H 93.86 42.42 61.67 H 88 C488 0
10512 C 89.58 39.39 64.29 C.3 89 C489 0
10513 C 90.55 40.29 64.75 C.3 89 C489 0
10514 H 89.02 39.14 65.01 H 89 C489 0
10515 H 91.15 39.84 65.35 H 89 C489 0
10516 H 90.13 41.01 65.2 H 89 C489 0
10517 C1 91.35 40.83 63.55 C.3 89 C489 0
10518 O2 91.56 42.04 63.45 O.3 89 C489 0
10519 O3 91.83 39.98 62.61 O.3 89 C489 0
10520 C 90.28 38.13 63.73 C.3 89 C489 0
10521 H 89.62 37.52 63.42 H 89 C489 0
10522 H 90.84 38.38 63.01 H 89 C489 0
10523 H 90.79 37.72 64.41 H 89 C489 0
10524 C 86.52 40.45 61.47 C.3 89 C489 0
10525 C 87.49 39.5 61.11 C.3 89 C489 0
10526 H 85.95 40.61 60.72 H 89 C489 0
10527 H 88.08 39.88 60.47 H 89 C489 0
10528 H 87.06 38.74 60.74 H 89 C489 0
10529 C1 88.28 39.09 62.37 C.3 89 C489 0
10530 O2 88.49 37.9 62.6 O.3 89 C489 0
10531 O3 88.76 40.04 63.21 O.3 89 C489 0
10532 C 87.21 41.76 61.89 C.3 89 C489 0
10533 H 86.55 42.4 62.13 H 89 C489 0
10534 H 87.77 41.59 62.64 H 89 C489 0
10535 H 87.73 42.09 61.17 H 89 C489 0
10536 C 83.45 39.71 64.39 C.3 89 C489 0
10537 C 84.42 40.68 64.64 C.3 89 C489 0
10538 H 82.88 39.62 65.15 H 89 C489 0
10539 H 85.01 40.38 65.32 H 89 C489 0
10540 H 84 41.49 64.93 H 89 C489 0
10541 C1 85.22 40.96 63.35 C.3 89 C489 0
10542 O2 85.42 42.11 62.99 O.3 89 C489 0
10543 O3 85.69 39.92 62.62 O.3 89 C489 0
10544 C 84.14 38.36 64.12 C.3 89 C489 0
10545 H 83.48 37.69 63.95 H 89 C489 0
10546 H 84.71 38.44 63.36 H 89 C489 0
10547 H 84.66 38.11 64.87 H 89 C489 0
10548 C 80.38 40.12 61.4 C.3 89 C489 0
10549 C 81.35 39.12 61.27 C.3 89 C489 0
10550 H 79.82 40.12 60.64 H 89 C489 0
10551 H 81.94 39.35 60.56 H 89 C489 0
10552 H 80.93 38.29 61.07 H 89 C489 0
10553 C1 82.15 38.99 62.58 C.3 89 C489 0
10554 O2 82.36 37.88 63.07 O.3 89 C489 0
10555 O3 82.63 40.11 63.19 O.3 89 C489 0
10556 C 81.07 41.49 61.53 C.3 89 C489 0
10557 H 80.41 42.17 61.63 H 89 C489 0
10558 H 81.64 41.49 62.29 H 89 C489 0
10559 H 81.59 41.66 60.75 H 89 C489 0
10560 C 77.31 40.04 64.42 C.3 89 C489 0
10561 C 78.28 41.05 64.45 C.3 89 C489 0
10562 H 76.75 40.12 65.18 H 89 C489 0
10563 H 78.88 40.9 65.18 H 89 C489 0
10564 H 77.86 41.89 64.55 H 89 C489 0
10565 C1 79.08 41.03 63.13 C.3 89 C489 0
10566 O2 79.29 42.08 62.52 O.3 89 C489 0
10567 O3 79.56 39.85 62.64 O.3 89 C489 0
10568 C 78.01 38.66 64.45 C.3 89 C489 0
10569 H 77.35 37.98 64.43 H 89 C489 0
10570 H 78.57 38.58 63.69 H 89 C489 0
10571 H 78.52 38.58 65.24 H 89 C489 0
10572 C 74.25 39.79 61.41 C.3 89 C489 0
10573 C 75.22 38.78 61.5 C.3 89 C489 0
10574 H 73.68 39.62 60.67 H 89 C489 0
10575 H 75.81 38.84 60.76 H 89 C489 0
10576 H 74.79 37.93 61.49 H 89 C489 0
10577 C1 76.01 38.94 62.81 C.3 89 C489 0
10578 O2 76.22 37.97 63.53 O.3 89 C489 0
10579 O3 76.49 40.17 63.16 O.3 89 C489 0
10580 C 74.94 41.15 61.24 C.3 89 C489 0
10581 H 74.28 41.83 61.18 H 89 C489 0
10582 H 75.5 41.32 61.98 H 89 C489 0
10583 H 75.46 41.14 60.44 H 89 C489 0
10584 C 71.18 40.37 64.38 C.3 89 C489 0
10585 C 72.15 41.36 64.18 C.3 89 C489 0
10586 H 70.61 40.62 65.1 H 89 C489 0
10587 H 72.74 41.38 64.92 H 89 C489 0
10588 H 71.73 42.21 64.09 H 89 C489 0
10589 C1 72.95 41.05 62.9 C.3 89 C489 0
10590 O2 73.15 41.94 62.07 O.3 89 C489 0
10591 O3 73.42 39.8 62.68 O.3 89 C489 0
10592 C 71.87 39.03 64.7 C.3 89 C489 0
10593 H 71.21 38.36 64.84 H 89 C489 0
10594 H 72.44 38.79 63.98 H 89 C489 0
10595 H 72.39 39.13 65.49 H 89 C489 0
10596 C 68.11 39.46 61.5 C.3 89 C489 0
10597 C 69.08 38.5 61.8 C.3 89 C489 0
10598 H 67.55 39.13 60.81 H 89 C489 0
10599 H 69.67 38.4 61.06 H 89 C489 0
10600 H 68.66 37.67 61.98 H 89 C489 0
10601 C1 69.88 38.95 63.04 C.3 89 C489 0
10602 O2 70.09 38.16 63.96 O.3 89 C489 0
10603 O3 70.36 40.22 63.12 O.3 89 C489 0
10604 C 68.8 40.75 61.02 C.3 89 C489 0
10605 H 68.14 41.41 60.82 H 89 C489 0
10606 H 69.37 41.08 61.71 H 89 C489 0
10607 H 69.32 40.57 60.25 H 89 C489 0
10608 C 65.04 40.68 64.26 C.3 89 C489 0
10609 C 66.01 41.61 63.85 C.3 89 C489 0
10610 H 64.48 41.09 64.91 H 89 C489 0
10611 H 66.6 41.79 64.57 H 89 C489 0
10612 H 65.59 42.41 63.58 H 89 C489 0
10613 C1 66.81 41.03 62.67 C.3 89 C489 0
10614 O2 67.02 41.71 61.67 O.3 89 C489 0
10615 O3 67.29 39.75 62.73 O.3 89 C489 0
10616 C 65.74 39.45 64.87 C.3 89 C489 0
10617 H 65.08 38.83 65.15 H 89 C489 0
10618 H 66.3 39.05 64.22 H 89 C489 0
10619 H 66.25 39.72 65.62 H 89 C489 0
10620 C 61.98 39.17 61.65 C.3 89 C489 0
10621 C 62.95 38.29 62.16 C.3 89 C489 0
10622 H 61.41 38.69 61.05 H 89 C489 0
10623 H 63.54 38.03 61.46 H 89 C489 0
10624 H 62.52 37.52 62.52 H 89 C489 0
10625 C1 63.74 39 63.27 C.3 89 C489 0
10626 O2 63.95 38.43 64.34 O.3 89 C489 0
10627 O3 64.22 40.26 63.07 O.3 89 C489 0
10628 C 62.67 40.32 60.9 C.3 89 C489 0
10629 H 62.01 40.91 60.56 H 89 C489 0
10630 H 63.23 40.79 61.5 H 89 C489 0
10631 H 63.19 39.97 60.19 H 89 C489 0
10632 C 58.91 40.96 64.07 C.3 89 C489 0
10633 C 59.88 41.77 63.47 C.3 89 C489 0
10634 H 58.34 41.5 64.62 H 89 C489 0
10635 H 60.47 42.11 64.14 H 89 C489 0
10636 H 59.46 42.5 63.03 H 89 C489 0
10637 C1 60.68 40.95 62.45 C.3 89 C489 0
10638 O2 60.88 41.4 61.32 O.3 89 C489 0
10639 O3 61.15 39.72 62.79 O.3 89 C489 0
10640 C 59.6 39.9 64.94 C.3 89 C489 0
10641 H 58.94 39.35 65.35 H 89 C489 0
10642 H 60.17 39.36 64.4 H 89 C489 0
10643 H 60.12 40.32 65.62 H 89 C489 0
10644 C 55.84 38.91 61.86 C.3 89 C489 0
10645 C 56.81 38.17 62.55 C.3 89 C489 0
10646 H 55.27 38.32 61.38 H 89 C489 0
10647 H 57.4 37.76 61.93 H 89 C489 0
10648 H 56.39 37.5 63.07 H 89 C489 0
10649 C1 57.61 39.1 63.48 C.3 89 C489 0
10650 O2 57.81 38.78 64.65 O.3 89 C489 0
10651 O3 58.09 40.29 63 O.3 89 C489 0
10652 C 56.53 39.87 60.88 C.3 89 C489 0
10653 H 55.87 40.38 60.42 H 89 C489 0
10654 H 57.1 40.46 61.36 H 89 C489 0
10655 H 57.05 39.38 60.26 H 89 C489 0
10656 C 52.77 41.2 63.83 C.3 89 C489 0
10657 C 53.74 41.86 63.07 C.3 89 C489 0
10658 H 52.21 41.84 64.25 H 89 C489 0
10659 H 54.33 42.33 63.64 H 89 C489 0
10660 H 53.32 42.47 62.48 H 89 C489 0
10661 C1 54.54 40.82 62.25 C.3 89 C489 0
10662 O2 54.75 41.01 61.05 O.3 89 C489 0
10663 O3 55.02 39.7 62.85 O.3 89 C489 0
10664 C 53.46 40.35 64.92 C.3 89 C489 0
10665 H 52.81 39.9 65.43 H 89 C489 0
10666 H 54.03 39.71 64.5 H 89 C489 0
10667 H 53.98 40.91 65.48 H 89 C489 0
10668 C 49.71 38.71 62.13 C.3 89 C489 0
10669 C 50.68 38.13 62.96 C.3 89 C489 0
10670 H 49.14 38.02 61.79 H 89 C489 0
10671 H 51.27 37.6 62.44 H 89 C489 0
10672 H 50.25 37.59 63.62 H 89 C489 0
10673 C1 51.47 39.25 63.66 C.3 89 C489 0
10674 O2 51.68 39.2 64.87 O.3 89 C489 0
10675 O3 51.95 40.3 62.94 O.3 89 C489 0
10676 C 50.4 39.43 60.96 C.3 89 C489 0
10677 H 49.74 39.82 60.39 H 89 C489 0
10678 H 50.96 40.11 61.3 H 89 C489 0
10679 H 50.91 38.81 60.46 H 89 C489 0
10680 C 46.64 41.37 63.55 C.3 89 C489 0
10681 C 47.61 41.85 62.66 C.3 89 C489 0
10682 H 46.07 42.09 63.81 H 89 C489 0
10683 H 48.2 42.43 63.11 H 89 C489 0
10684 H 47.19 42.31 61.95 H 89 C489 0
10685 C1 48.41 40.66 62.09 C.3 89 C489 0
10686 O2 48.61 40.58 60.88 O.3 89 C489 0
10687 O3 48.88 39.69 62.92 O.3 89 C489 0
10688 C 47.33 40.78 64.79 C.3 89 C489 0
10689 H 46.67 40.46 65.39 H 89 C489 0
10690 H 47.9 40.06 64.53 H 89 C489 0
10691 H 47.85 41.45 65.21 H 89 C489 0
10692 C 43.57 38.57 62.43 C.3 89 C489 0
10693 C 44.54 38.19 63.37 C.3 89 C489 0
10694 H 43.01 37.82 62.25 H 89 C489 0
10695 H 45.13 37.56 62.98 H 89 C489 0
10696 H 44.12 37.81 64.13 H 89 C489 0
10697 C1 45.34 39.44 63.81 C.3 89 C489 0
10698 O2 45.54 39.65 65 O.3 89 C489 0
10699 O3 45.82 40.3 62.87 O.3 89 C489 0
10700 C 44.26 39.02 61.13 C.3 89 C489 0
10701 H 43.6 39.27 60.5 H 89 C489 0
10702 H 44.83 39.76 61.31 H 89 C489 0
10703 H 44.78 38.3 60.78 H 89 C489 0
10704 C 40.5 41.48 63.23 C.3 89 C489 0
10705 C 41.47 41.74 62.26 C.3 89 C489 0
10706 H 39.94 42.23 63.33 H 89 C489 0
10707 H 42.06 42.42 62.57 H 89 C489 0
10708 H 41.05 42.04 61.46 H 89 C489 0
10709 C1 42.27 40.46 61.96 C.3 89 C489 0
10710 O2 42.48 40.12 60.8 O.3 89 C489 0
10711 O3 42.75 39.7 62.99 O.3 89 C489 0
10712 C 41.19 41.17 64.57 C.3 89 C489 0
10713 H 40.54 40.99 65.23 H 89 C489 0
10714 H 41.76 40.42 64.47 H 89 C489 0
10715 H 41.71 41.92 64.84 H 89 C489 0
10716 C 37.44 38.5 62.76 C.3 89 C489 0
10717 C 38.41 38.34 63.76 C.3 89 C489 0
10718 H 36.87 37.73 62.75 H 89 C489 0
10719 H 39 37.63 63.52 H 89 C489 0
10720 H 37.98 38.13 64.58 H 89 C489 0
10721 C1 39.2 39.65 63.91 C.3 89 C489 0
10722 O2 39.41 40.12 65.03 O.3 89 C489 0
10723 O3 39.68 40.29 62.81 O.3 89 C489 0
10724 C 38.13 38.65 61.39 C.3 89 C489 0
10725 H 37.47 38.76 60.72 H 89 C489 0
10726 H 38.69 39.41 61.41 H 89 C489 0
10727 H 38.64 37.87 61.21 H 89 C489 0
10728 C 34.37 41.51 62.9 C.3 89 C489 0
10729 C 35.34 41.56 61.89 C.3 89 C489 0
10730 H 33.8 42.27 62.83 H 89 C489 0
10731 H 35.93 42.28 62.05 H 89 C489 0
10732 H 34.91 41.67 61.05 H 89 C489 0
10733 C1 36.14 40.24 61.88 C.3 89 C489 0
10734 O2 36.34 39.65 60.82 O.3 89 C489 0
10735 O3 36.61 39.73 63.05 O.3 89 C489 0
10736 C 35.06 41.51 64.27 C.3 89 C489 0
10737 H 34.4 41.48 64.96 H 89 C489 0
10738 H 35.62 40.75 64.34 H 89 C489 0
10739 H 35.58 42.3 64.37 H 89 C489 0
10740 C 31.3 38.5 63.1 C.3 89 C489 0
10741 C 32.27 38.57 64.1 C.3 89 C489 0
10742 H 30.73 37.75 63.25 H 89 C489 0
10743 H 32.86 37.82 64.02 H 89 C489 0
10744 H 31.85 38.54 64.95 H 89 C489 0
10745 C1 33.07 39.88 63.96 C.3 89 C489 0
10746 O2 33.27 40.58 64.95 O.3 89 C489 0
10747 O3 33.54 40.25 62.75 O.3 89 C489 0
10748 C 31.99 38.35 61.73 C.3 89 C489 0
10749 H 31.33 38.3 61.04 H 89 C489 0
10750 H 32.56 39.1 61.57 H 89 C489 0
10751 H 32.51 37.55 61.72 H 89 C489 0
10752 C 28.23 41.47 62.57 C.3 89 C489 0
10753 C 29.2 41.3 61.57 C.3 89 C489 0
10754 H 27.67 42.2 62.33 H 89 C489 0
10755 H 29.79 42.04 61.57 H 89 C489 0
10756 H 28.78 41.22 60.73 H 89 C489 0
10757 C1 30 40.01 61.86 C.3 89 C489 0
10758 O2 30.21 39.2 60.95 O.3 89 C489 0
10759 O3 30.48 39.77 63.11 O.3 89 C489 0
10760 C 28.92 41.77 63.91 C.3 89 C489 0
10761 H 28.27 41.89 64.58 H 89 C489 0
10762 H 29.49 41.05 64.14 H 89 C489 0
10763 H 29.44 42.57 63.83 H 89 C489 0
10764 C 25.17 38.58 63.42 C.3 89 C489 0
10765 C 26.14 38.86 64.39 C.3 89 C489 0
10766 H 24.6 37.88 63.74 H 89 C489 0
10767 H 26.73 38.12 64.47 H 89 C489 0
10768 H 25.71 39.03 65.22 H 89 C489 0
10769 C1 26.93 40.11 63.96 C.3 89 C489 0
10770 O2 27.14 41.01 64.77 O.3 89 C489 0
10771 O3 27.41 40.21 62.7 O.3 89 C489 0
10772 C 25.86 38.13 62.12 C.3 89 C489 0
10773 H 25.2 37.94 61.46 H 89 C489 0
10774 H 26.42 38.82 61.81 H 89 C489 0
10775 H 26.37 37.35 62.29 H 89 C489 0
10776 C 22.1 41.36 62.25 C.3 89 C489 0
10777 C 23.07 40.97 61.32 C.3 89 C489 0
10778 H 21.53 42.02 61.86 H 89 C489 0
10779 H 23.66 41.69 61.15 H 89 C489 0
10780 H 22.64 40.71 60.51 H 89 C489 0
10781 C1 23.87 39.78 61.88 C.3 89 C489 0
10782 O2 24.07 38.79 61.18 O.3 89 C489 0
10783 O3 24.34 39.81 63.15 O.3 89 C489 0
10784 C 22.79 41.95 63.5 C.3 89 C489 0
10785 H 22.13 42.22 64.13 H 89 C489 0
10786 H 23.35 41.29 63.88 H 89 C489 0
10787 H 23.31 42.71 63.24 H 89 C489 0
10788 C 19.03 38.72 63.72 C.3 89 C489 0
10789 C 20 39.22 64.6 C.3 89 C489 0
10790 H 18.46 38.12 64.18 H 89 C489 0
10791 H 20.59 38.51 64.85 H 89 C489 0
10792 H 19.58 39.56 65.38 H 89 C489 0
10793 C1 20.8 40.34 63.91 C.3 89 C489 0
10794 O2 21 41.4 64.51 O.3 89 C489 0
10795 O3 21.27 40.16 62.65 O.3 89 C489 0
10796 C 19.72 38 62.55 C.3 89 C489 0
10797 H 19.06 37.67 61.95 H 89 C489 0
10798 H 20.29 38.61 62.09 H 89 C489 0
10799 H 20.24 37.28 62.89 H 89 C489 0
10800 C 15.96 41.18 61.97 C.3 89 C489 0
10801 C 16.93 40.6 61.15 C.3 89 C489 0
10802 H 15.4 41.74 61.45 H 89 C489 0
10803 H 17.52 41.27 60.83 H 89 C489 0
10804 H 16.51 40.17 60.41 H 89 C489 0
10805 C1 17.73 39.56 61.96 C.3 89 C489 0
10806 O2 17.94 38.44 61.49 O.3 89 C489 0
10807 O3 18.21 39.87 63.19 O.3 89 C489 0
10808 C 16.65 42.03 63.05 C.3 89 C489 0
10809 H 16 42.43 63.61 H 89 C489 0
10810 H 17.22 41.48 63.58 H 89 C489 0
10811 H 17.17 42.71 62.64 H 89 C489 0
10812 C 12.89 38.93 63.98 C.3 89 C489 0
10813 C 13.87 39.61 64.74 C.3 89 C489 0
10814 H 12.33 38.44 64.56 H 89 C489 0
10815 H 14.45 38.98 65.13 H 89 C489 0
10816 H 13.44 40.11 65.42 H 89 C489 0
10817 C1 14.66 40.55 63.82 C.3 89 C489 0
10818 O2 14.87 41.72 64.16 O.3 89 C489 0
10819 O3 15.14 40.1 62.63 O.3 89 C489 0
10820 C 13.59 37.97 63 C.3 89 C489 0
10821 H 12.93 37.51 62.49 H 89 C489 0
10822 H 14.15 38.46 62.42 H 89 C489 0
10823 H 14.1 37.34 63.49 H 89 C489 0
10824 C 9.83 40.95 61.73 C.3 89 C489 0
10825 C 10.8 40.19 61.06 C.3 89 C489 0
10826 H 9.26 41.37 61.1 H 89 C489 0
10827 H 11.39 40.78 60.6 H 89 C489 0
10828 H 10.37 39.61 60.44 H 89 C489 0
10829 C1 11.59 39.36 62.08 C.3 89 C489 0
10830 O2 11.8 38.16 61.86 O.3 89 C489 0
10831 O3 12.07 39.94 63.21 O.3 89 C489 0
10832 C 10.52 42.01 62.6 C.3 89 C489 0
10833 H 9.86 42.52 63.06 H 89 C489 0
10834 H 11.08 41.59 63.24 H 89 C489 0
10835 H 11.04 42.59 62.05 H 89 C489 0
10836 C 6.76 39.2 64.19 C.3 89 C489 0
10837 C 7.73 40.02 64.78 C.3 89 C489 0
10838 H 6.19 38.84 64.87 H 89 C489 0
10839 H 8.32 39.49 65.3 H 89 C489 0
10840 H 7.31 40.66 65.33 H 89 C489 0
10841 C1 8.53 40.74 63.67 C.3 89 C489 0
10842 O2 8.73 41.95 63.75 O.3 89 C489 0
10843 O3 9 40.04 62.61 O.3 89 C489 0
10844 C 7.45 38.04 63.44 C.3 89 C489 0
10845 H 6.79 37.48 63.05 H 89 C489 0
10846 H 8.02 38.39 62.77 H 89 C489 0
10847 H 7.97 37.53 64.06 H 89 C489 0
10848 H 3.17 40.23 62.22 H 90 C490 0
10849 C 3.69 40.66 61.55 C.3 90 C490 0
10850 C 4.66 39.78 61.06 C.3 90 C490 0
10851 H 3.13 40.94 60.84 H 90 C490 0
10852 H 5.25 40.25 60.49 H 90 C490 0
10853 H 4.24 39.08 60.58 H 90 C490 0
10854 C1 5.46 39.19 62.24 C.3 90 C490 0
10855 O2 5.67 37.98 62.3 O.3 90 C490 0
10856 O3 5.94 40 63.22 O.3 90 C490 0
10857 C 4.38 41.9 62.17 C.3 90 C490 0
10858 H 3.72 42.49 62.5 H 90 C490 0
10859 H 4.95 41.62 62.88 H 90 C490 0
10860 H 4.9 42.33 61.5 H 90 C490 0
10861 C 92.65 40.75 73.03 C.3 91 C491 0
10862 C 93.62 39.91 72.48 C.3 91 C491 0
10863 H 92.09 41.08 72.34 H 91 C491 0
10864 H 94.21 40.42 71.94 H 91 C491 0
10865 H 93.2 39.24 71.95 H 91 C491 0
10866 C1 94.42 39.23 73.61 C.3 91 C491 0
10867 O2 94.63 38.02 73.58 O.3 91 C491 0
10868 O3 94.9 39.97 74.64 O.3 91 C491 0
10869 H5 95.42 39.42 75.22 H 91 C491 0
10870 C 93.34 41.93 73.74 C.3 91 C491 0
10871 H 92.68 42.51 74.11 H 91 C491 0
10872 H 93.91 41.61 74.42 H 91 C491 0
10873 H 93.86 42.42 73.1 H 91 C491 0
10874 C 89.58 39.39 75.72 C.3 92 C492 0
10875 C 90.55 40.29 76.18 C.3 92 C492 0
10876 H 89.02 39.14 76.44 H 92 C492 0
10877 H 91.15 39.84 76.78 H 92 C492 0
10878 H 90.13 41.01 76.63 H 92 C492 0
10879 C1 91.35 40.83 74.98 C.3 92 C492 0
10880 O2 91.56 42.04 74.88 O.3 92 C492 0
10881 O3 91.83 39.98 74.04 O.3 92 C492 0
10882 C 90.28 38.13 75.16 C.3 92 C492 0
10883 H 89.62 37.52 74.85 H 92 C492 0
10884 H 90.84 38.38 74.44 H 92 C492 0
10885 H 90.79 37.72 75.84 H 92 C492 0
10886 C 86.52 40.45 72.9 C.3 92 C492 0
10887 C 87.49 39.5 72.54 C.3 92 C492 0
10888 H 85.95 40.61 72.15 H 92 C492 0
10889 H 88.08 39.88 71.9 H 92 C492 0
10890 H 87.06 38.74 72.17 H 92 C492 0
10891 C1 88.28 39.09 73.8 C.3 92 C492 0
10892 O2 88.49 37.9 74.03 O.3 92 C492 0
10893 O3 88.76 40.04 74.64 O.3 92 C492 0
10894 C 87.21 41.76 73.32 C.3 92 C492 0
10895 H 86.55 42.4 73.56 H 92 C492 0
10896 H 87.77 41.59 74.07 H 92 C492 0
10897 H 87.73 42.09 72.6 H 92 C492 0
10898 C 83.45 39.71 75.82 C.3 92 C492 0
10899 C 84.42 40.68 76.07 C.3 92 C492 0
10900 H 82.88 39.62 76.58 H 92 C492 0
10901 H 85.01 40.38 76.75 H 92 C492 0
10902 H 84 41.49 76.36 H 92 C492 0
10903 C1 85.22 40.96 74.78 C.3 92 C492 0
10904 O2 85.42 42.11 74.42 O.3 92 C492 0
10905 O3 85.69 39.92 74.05 O.3 92 C492 0
10906 C 84.14 38.36 75.55 C.3 92 C492 0
10907 H 83.48 37.69 75.38 H 92 C492 0
10908 H 84.71 38.44 74.79 H 92 C492 0
10909 H 84.66 38.11 76.3 H 92 C492 0
10910 C 80.38 40.12 72.83 C.3 92 C492 0
10911 C 81.35 39.12 72.7 C.3 92 C492 0
10912 H 79.82 40.12 72.07 H 92 C492 0
10913 H 81.94 39.35 71.99 H 92 C492 0
10914 H 80.93 38.29 72.5 H 92 C492 0
10915 C1 82.15 38.99 74.01 C.3 92 C492 0
10916 O2 82.36 37.88 74.5 O.3 92 C492 0
10917 O3 82.63 40.11 74.62 O.3 92 C492 0
10918 C 81.07 41.49 72.96 C.3 92 C492 0
10919 H 80.41 42.17 73.06 H 92 C492 0
10920 H 81.64 41.49 73.72 H 92 C492 0
10921 H 81.59 41.66 72.18 H 92 C492 0
10922 C 77.31 40.04 75.85 C.3 92 C492 0
10923 C 78.28 41.05 75.88 C.3 92 C492 0
10924 H 76.75 40.12 76.61 H 92 C492 0
10925 H 78.88 40.9 76.61 H 92 C492 0
10926 H 77.86 41.89 75.98 H 92 C492 0
10927 C1 79.08 41.03 74.56 C.3 92 C492 0
10928 O2 79.29 42.08 73.95 O.3 92 C492 0
10929 O3 79.56 39.85 74.07 O.3 92 C492 0
10930 C 78.01 38.66 75.88 C.3 92 C492 0
10931 H 77.35 37.98 75.86 H 92 C492 0
10932 H 78.57 38.58 75.12 H 92 C492 0
10933 H 78.52 38.58 76.67 H 92 C492 0
10934 C 74.25 39.79 72.84 C.3 92 C492 0
10935 C 75.22 38.78 72.93 C.3 92 C492 0
10936 H 73.68 39.62 72.1 H 92 C492 0
10937 H 75.81 38.84 72.19 H 92 C492 0
10938 H 74.79 37.93 72.92 H 92 C492 0
10939 C1 76.01 38.94 74.24 C.3 92 C492 0
10940 O2 76.22 37.97 74.96 O.3 92 C492 0
10941 O3 76.49 40.17 74.59 O.3 92 C492 0
10942 C 74.94 41.15 72.67 C.3 92 C492 0
10943 H 74.28 41.83 72.61 H 92 C492 0
10944 H 75.5 41.32 73.41 H 92 C492 0
10945 H 75.46 41.14 71.87 H 92 C492 0
10946 C 71.18 40.37 75.81 C.3 92 C492 0
10947 C 72.15 41.36 75.61 C.3 92 C492 0
10948 H 70.61 40.62 76.53 H 92 C492 0
10949 H 72.74 41.38 76.35 H 92 C492 0
10950 H 71.73 42.21 75.52 H 92 C492 0
10951 C1 72.95 41.05 74.33 C.3 92 C492 0
10952 O2 73.15 41.94 73.5 O.3 92 C492 0
10953 O3 73.42 39.8 74.11 O.3 92 C492 0
10954 C 71.87 39.03 76.13 C.3 92 C492 0
10955 H 71.21 38.36 76.27 H 92 C492 0
10956 H 72.44 38.79 75.41 H 92 C492 0
10957 H 72.39 39.13 76.92 H 92 C492 0
10958 C 68.11 39.46 72.93 C.3 92 C492 0
10959 C 69.08 38.5 73.23 C.3 92 C492 0
10960 H 67.55 39.13 72.24 H 92 C492 0
10961 H 69.67 38.4 72.49 H 92 C492 0
10962 H 68.66 37.67 73.41 H 92 C492 0
10963 C1 69.88 38.95 74.47 C.3 92 C492 0
10964 O2 70.09 38.16 75.39 O.3 92 C492 0
10965 O3 70.36 40.22 74.55 O.3 92 C492 0
10966 C 68.8 40.75 72.45 C.3 92 C492 0
10967 H 68.14 41.41 72.25 H 92 C492 0
10968 H 69.37 41.08 73.14 H 92 C492 0
10969 H 69.32 40.57 71.68 H 92 C492 0
10970 C 65.04 40.68 75.69 C.3 92 C492 0
10971 C 66.01 41.61 75.28 C.3 92 C492 0
10972 H 64.48 41.09 76.34 H 92 C492 0
10973 H 66.6 41.79 76 H 92 C492 0
10974 H 65.59 42.41 75.01 H 92 C492 0
10975 C1 66.81 41.03 74.1 C.3 92 C492 0
10976 O2 67.02 41.71 73.1 O.3 92 C492 0
10977 O3 67.29 39.75 74.16 O.3 92 C492 0
10978 C 65.74 39.45 76.3 C.3 92 C492 0
10979 H 65.08 38.83 76.58 H 92 C492 0
10980 H 66.3 39.05 75.65 H 92 C492 0
10981 H 66.25 39.72 77.05 H 92 C492 0
10982 C 61.98 39.17 73.08 C.3 92 C492 0
10983 C 62.95 38.29 73.59 C.3 92 C492 0
10984 H 61.41 38.69 72.48 H 92 C492 0
10985 H 63.54 38.03 72.89 H 92 C492 0
10986 H 62.52 37.52 73.95 H 92 C492 0
10987 C1 63.74 39 74.7 C.3 92 C492 0
10988 O2 63.95 38.43 75.77 O.3 92 C492 0
10989 O3 64.22 40.26 74.5 O.3 92 C492 0
10990 C 62.67 40.32 72.33 C.3 92 C492 0
10991 H 62.01 40.91 71.99 H 92 C492 0
10992 H 63.23 40.79 72.93 H 92 C492 0
10993 H 63.19 39.97 71.62 H 92 C492 0
10994 C 58.91 40.96 75.5 C.3 92 C492 0
10995 C 59.88 41.77 74.9 C.3 92 C492 0
10996 H 58.34 41.5 76.05 H 92 C492 0
10997 H 60.47 42.11 75.57 H 92 C492 0
10998 H 59.46 42.5 74.46 H 92 C492 0
10999 C1 60.68 40.95 73.88 C.3 92 C492 0
11000 O2 60.88 41.4 72.75 O.3 92 C492 0
11001 O3 61.15 39.72 74.22 O.3 92 C492 0
11002 C 59.6 39.9 76.37 C.3 92 C492 0
11003 H 58.94 39.35 76.78 H 92 C492 0
11004 H 60.17 39.36 75.83 H 92 C492 0
11005 H 60.12 40.32 77.05 H 92 C492 0
11006 C 55.84 38.91 73.29 C.3 92 C492 0
11007 C 56.81 38.17 73.98 C.3 92 C492 0
11008 H 55.27 38.32 72.81 H 92 C492 0
11009 H 57.4 37.76 73.36 H 92 C492 0
11010 H 56.39 37.5 74.5 H 92 C492 0
11011 C1 57.61 39.1 74.91 C.3 92 C492 0
11012 O2 57.81 38.78 76.08 O.3 92 C492 0
11013 O3 58.09 40.29 74.43 O.3 92 C492 0
11014 C 56.53 39.87 72.31 C.3 92 C492 0
11015 H 55.87 40.38 71.85 H 92 C492 0
11016 H 57.1 40.46 72.79 H 92 C492 0
11017 H 57.05 39.38 71.69 H 92 C492 0
11018 C 52.77 41.2 75.26 C.3 92 C492 0
11019 C 53.74 41.86 74.5 C.3 92 C492 0
11020 H 52.21 41.84 75.68 H 92 C492 0
11021 H 54.33 42.33 75.07 H 92 C492 0
11022 H 53.32 42.47 73.91 H 92 C492 0
11023 C1 54.54 40.82 73.68 C.3 92 C492 0
11024 O2 54.75 41.01 72.48 O.3 92 C492 0
11025 O3 55.02 39.7 74.28 O.3 92 C492 0
11026 C 53.46 40.35 76.35 C.3 92 C492 0
11027 H 52.81 39.9 76.86 H 92 C492 0
11028 H 54.03 39.71 75.93 H 92 C492 0
11029 H 53.98 40.91 76.91 H 92 C492 0
11030 C 49.71 38.71 73.56 C.3 92 C492 0
11031 C 50.68 38.13 74.39 C.3 92 C492 0
11032 H 49.14 38.02 73.22 H 92 C492 0
11033 H 51.27 37.6 73.87 H 92 C492 0
11034 H 50.25 37.59 75.05 H 92 C492 0
11035 C1 51.47 39.25 75.09 C.3 92 C492 0
11036 O2 51.68 39.2 76.3 O.3 92 C492 0
11037 O3 51.95 40.3 74.37 O.3 92 C492 0
11038 C 50.4 39.43 72.39 C.3 92 C492 0
11039 H 49.74 39.82 71.82 H 92 C492 0
11040 H 50.96 40.11 72.73 H 92 C492 0
11041 H 50.91 38.81 71.89 H 92 C492 0
11042 C 46.64 41.37 74.98 C.3 92 C492 0
11043 C 47.61 41.85 74.09 C.3 92 C492 0
11044 H 46.07 42.09 75.24 H 92 C492 0
11045 H 48.2 42.43 74.54 H 92 C492 0
11046 H 47.19 42.31 73.38 H 92 C492 0
11047 C1 48.41 40.66 73.52 C.3 92 C492 0
11048 O2 48.61 40.58 72.31 O.3 92 C492 0
11049 O3 48.88 39.69 74.35 O.3 92 C492 0
11050 C 47.33 40.78 76.22 C.3 92 C492 0
11051 H 46.67 40.46 76.82 H 92 C492 0
11052 H 47.9 40.06 75.96 H 92 C492 0
11053 H 47.85 41.45 76.64 H 92 C492 0
11054 C 43.57 38.57 73.86 C.3 92 C492 0
11055 C 44.54 38.19 74.8 C.3 92 C492 0
11056 H 43.01 37.82 73.68 H 92 C492 0
11057 H 45.13 37.56 74.41 H 92 C492 0
11058 H 44.12 37.81 75.56 H 92 C492 0
11059 C1 45.34 39.44 75.24 C.3 92 C492 0
11060 O2 45.54 39.65 76.43 O.3 92 C492 0
11061 O3 45.82 40.3 74.3 O.3 92 C492 0
11062 C 44.26 39.02 72.56 C.3 92 C492 0
11063 H 43.6 39.27 71.93 H 92 C492 0
11064 H 44.83 39.76 72.74 H 92 C492 0
11065 H 44.78 38.3 72.21 H 92 C492 0
11066 C 40.5 41.48 74.66 C.3 92 C492 0
11067 C 41.47 41.74 73.69 C.3 92 C492 0
11068 H 39.94 42.23 74.76 H 92 C492 0
11069 H 42.06 42.42 74 H 92 C492 0
11070 H 41.05 42.04 72.89 H 92 C492 0
11071 C1 42.27 40.46 73.39 C.3 92 C492 0
11072 O2 42.48 40.12 72.23 O.3 92 C492 0
11073 O3 42.75 39.7 74.42 O.3 92 C492 0
11074 C 41.19 41.17 76 C.3 92 C492 0
11075 H 40.54 40.99 76.66 H 92 C492 0
11076 H 41.76 40.42 75.9 H 92 C492 0
11077 H 41.71 41.92 76.27 H 92 C492 0
11078 C 37.44 38.5 74.19 C.3 92 C492 0
11079 C 38.41 38.34 75.19 C.3 92 C492 0
11080 H 36.87 37.73 74.18 H 92 C492 0
11081 H 39 37.63 74.95 H 92 C492 0
11082 H 37.98 38.13 76.01 H 92 C492 0
11083 C1 39.2 39.65 75.34 C.3 92 C492 0
11084 O2 39.41 40.12 76.46 O.3 92 C492 0
11085 O3 39.68 40.29 74.24 O.3 92 C492 0
11086 C 38.13 38.65 72.82 C.3 92 C492 0
11087 H 37.47 38.76 72.15 H 92 C492 0
11088 H 38.69 39.41 72.84 H 92 C492 0
11089 H 38.64 37.87 72.64 H 92 C492 0
11090 C 34.37 41.51 74.33 C.3 92 C492 0
11091 C 35.34 41.56 73.32 C.3 92 C492 0
11092 H 33.8 42.27 74.26 H 92 C492 0
11093 H 35.93 42.28 73.48 H 92 C492 0
11094 H 34.91 41.67 72.48 H 92 C492 0
11095 C1 36.14 40.24 73.31 C.3 92 C492 0
11096 O2 36.34 39.65 72.25 O.3 92 C492 0
11097 O3 36.61 39.73 74.48 O.3 92 C492 0
11098 C 35.06 41.51 75.7 C.3 92 C492 0
11099 H 34.4 41.48 76.39 H 92 C492 0
11100 H 35.62 40.75 75.77 H 92 C492 0
11101 H 35.58 42.3 75.8 H 92 C492 0
11102 C 31.3 38.5 74.53 C.3 92 C492 0
11103 C 32.27 38.57 75.53 C.3 92 C492 0
11104 H 30.73 37.75 74.68 H 92 C492 0
11105 H 32.86 37.82 75.45 H 92 C492 0
11106 H 31.85 38.54 76.38 H 92 C492 0
11107 C1 33.07 39.88 75.39 C.3 92 C492 0
11108 O2 33.27 40.58 76.38 O.3 92 C492 0
11109 O3 33.54 40.25 74.18 O.3 92 C492 0
11110 C 31.99 38.35 73.16 C.3 92 C492 0
11111 H 31.33 38.3 72.47 H 92 C492 0
11112 H 32.56 39.1 73 H 92 C492 0
11113 H 32.51 37.55 73.15 H 92 C492 0
11114 C 28.23 41.47 74 C.3 92 C492 0
11115 C 29.2 41.3 73 C.3 92 C492 0
11116 H 27.67 42.2 73.76 H 92 C492 0
11117 H 29.79 42.04 73 H 92 C492 0
11118 H 28.78 41.22 72.16 H 92 C492 0
11119 C1 30 40.01 73.29 C.3 92 C492 0
11120 O2 30.21 39.2 72.38 O.3 92 C492 0
11121 O3 30.48 39.77 74.54 O.3 92 C492 0
11122 C 28.92 41.77 75.34 C.3 92 C492 0
11123 H 28.27 41.89 76.01 H 92 C492 0
11124 H 29.49 41.05 75.57 H 92 C492 0
11125 H 29.44 42.57 75.26 H 92 C492 0
11126 C 25.17 38.58 74.85 C.3 92 C492 0
11127 C 26.14 38.86 75.82 C.3 92 C492 0
11128 H 24.6 37.88 75.17 H 92 C492 0
11129 H 26.73 38.12 75.9 H 92 C492 0
11130 H 25.71 39.03 76.65 H 92 C492 0
11131 C1 26.93 40.11 75.39 C.3 92 C492 0
11132 O2 27.14 41.01 76.2 O.3 92 C492 0
11133 O3 27.41 40.21 74.13 O.3 92 C492 0
11134 C 25.86 38.13 73.55 C.3 92 C492 0
11135 H 25.2 37.94 72.89 H 92 C492 0
11136 H 26.42 38.82 73.24 H 92 C492 0
11137 H 26.37 37.35 73.72 H 92 C492 0
11138 C 22.1 41.36 73.68 C.3 92 C492 0
11139 C 23.07 40.97 72.75 C.3 92 C492 0
11140 H 21.53 42.02 73.29 H 92 C492 0
11141 H 23.66 41.69 72.58 H 92 C492 0
11142 H 22.64 40.71 71.94 H 92 C492 0
11143 C1 23.87 39.78 73.31 C.3 92 C492 0
11144 O2 24.07 38.79 72.61 O.3 92 C492 0
11145 O3 24.34 39.81 74.58 O.3 92 C492 0
11146 C 22.79 41.95 74.93 C.3 92 C492 0
11147 H 22.13 42.22 75.56 H 92 C492 0
11148 H 23.35 41.29 75.31 H 92 C492 0
11149 H 23.31 42.71 74.67 H 92 C492 0
11150 C 19.03 38.72 75.15 C.3 92 C492 0
11151 C 20 39.22 76.03 C.3 92 C492 0
11152 H 18.46 38.12 75.61 H 92 C492 0
11153 H 20.59 38.51 76.28 H 92 C492 0
11154 H 19.58 39.56 76.81 H 92 C492 0
11155 C1 20.8 40.34 75.34 C.3 92 C492 0
11156 O2 21 41.4 75.94 O.3 92 C492 0
11157 O3 21.27 40.16 74.08 O.3 92 C492 0
11158 C 19.72 38 73.98 C.3 92 C492 0
11159 H 19.06 37.67 73.38 H 92 C492 0
11160 H 20.29 38.61 73.52 H 92 C492 0
11161 H 20.24 37.28 74.32 H 92 C492 0
11162 C 15.96 41.18 73.4 C.3 92 C492 0
11163 C 16.93 40.6 72.58 C.3 92 C492 0
11164 H 15.4 41.74 72.88 H 92 C492 0
11165 H 17.52 41.27 72.26 H 92 C492 0
11166 H 16.51 40.17 71.84 H 92 C492 0
11167 C1 17.73 39.56 73.39 C.3 92 C492 0
11168 O2 17.94 38.44 72.92 O.3 92 C492 0
11169 O3 18.21 39.87 74.62 O.3 92 C492 0
11170 C 16.65 42.03 74.48 C.3 92 C492 0
11171 H 16 42.43 75.04 H 92 C492 0
11172 H 17.22 41.48 75.01 H 92 C492 0
11173 H 17.17 42.71 74.07 H 92 C492 0
11174 C 12.89 38.93 75.41 C.3 92 C492 0
11175 C 13.87 39.61 76.17 C.3 92 C492 0
11176 H 12.33 38.44 75.99 H 92 C492 0
11177 H 14.45 38.98 76.56 H 92 C492 0
11178 H 13.44 40.11 76.85 H 92 C492 0
11179 C1 14.66 40.55 75.25 C.3 92 C492 0
11180 O2 14.87 41.72 75.59 O.3 92 C492 0
11181 O3 15.14 40.1 74.06 O.3 92 C492 0
11182 C 13.59 37.97 74.43 C.3 92 C492 0
11183 H 12.93 37.51 73.92 H 92 C492 0
11184 H 14.15 38.46 73.85 H 92 C492 0
11185 H 14.1 37.34 74.92 H 92 C492 0
11186 C 9.83 40.95 73.16 C.3 92 C492 0
11187 C 10.8 40.19 72.49 C.3 92 C492 0
11188 H 9.26 41.37 72.53 H 92 C492 0
11189 H 11.39 40.78 72.03 H 92 C492 0
11190 H 10.37 39.61 71.87 H 92 C492 0
11191 C1 11.59 39.36 73.51 C.3 92 C492 0
11192 O2 11.8 38.16 73.29 O.3 92 C492 0
11193 O3 12.07 39.94 74.64 O.3 92 C492 0
11194 C 10.52 42.01 74.03 C.3 92 C492 0
11195 H 9.86 42.52 74.49 H 92 C492 0
11196 H 11.08 41.59 74.67 H 92 C492 0
11197 H 11.04 42.59 73.48 H 92 C492 0
11198 C 6.76 39.2 75.62 C.3 92 C492 0
11199 C 7.73 40.02 76.21 C.3 92 C492 0
11200 H 6.19 38.84 76.3 H 92 C492 0
11201 H 8.32 39.49 76.73 H 92 C492 0
11202 H 7.31 40.66 76.76 H 92 C492 0
11203 C1 8.53 40.74 75.1 C.3 92 C492 0
11204 O2 8.73 41.95 75.18 O.3 92 C492 0
11205 O3 9 40.04 74.04 O.3 92 C492 0
11206 C 7.45 38.04 74.87 C.3 92 C492 0
11207 H 6.79 37.48 74.48 H 92 C492 0
11208 H 8.02 38.39 74.2 H 92 C492 0
11209 H 7.97 37.53 75.49 H 92 C492 0
11210 H 3.17 40.23 73.65 H 93 C493 0
11211 C 3.69 40.66 72.98 C.3 93 C493 0
11212 C 4.66 39.78 72.49 C.3 93 C493 0
11213 H 3.13 40.94 72.27 H 93 C493 0
11214 H 5.25 40.25 71.92 H 93 C493 0
11215 H 4.24 39.08 72.01 H 93 C493 0
11216 C1 5.46 39.19 73.67 C.3 93 C493 0
11217 O2 5.67 37.98 73.73 O.3 93 C493 0
11218 O3 5.94 40 74.65 O.3 93 C493 0
11219 C 4.38 41.9 73.6 C.3 93 C493 0
11220 H 3.72 42.49 73.93 H 93 C493 0
11221 H 4.95 41.62 74.31 H 93 C493 0
11222 H 4.9 42.33 72.93 H 93 C493 0
11223 C 92.65 40.75 84.46 C.3 94 C494 0
11224 C 93.62 39.91 83.91 C.3 94 C494 0
11225 H 92.09 41.08 83.77 H 94 C494 0
11226 H 94.21 40.42 83.37 H 94 C494 0
11227 H 93.2 39.24 83.38 H 94 C494 0
11228 C1 94.42 39.23 85.04 C.3 94 C494 0
11229 O2 94.63 38.02 85.01 O.3 94 C494 0
11230 O3 94.9 39.97 86.07 O.3 94 C494 0
11231 H5 95.42 39.42 86.65 H 94 C494 0
11232 C 93.34 41.93 85.17 C.3 94 C494 0
11233 H 92.68 42.51 85.54 H 94 C494 0
11234 H 93.91 41.61 85.85 H 94 C494 0
11235 H 93.86 42.42 84.53 H 94 C494 0
11236 C 89.58 39.39 87.15 C.3 95 C495 0
11237 C 90.55 40.29 87.61 C.3 95 C495 0
11238 H 89.02 39.14 87.87 H 95 C495 0
11239 H 91.15 39.84 88.21 H 95 C495 0
11240 H 90.13 41.01 88.06 H 95 C495 0
11241 C1 91.35 40.83 86.41 C.3 95 C495 0
11242 O2 91.56 42.04 86.31 O.3 95 C495 0
11243 O3 91.83 39.98 85.47 O.3 95 C495 0
11244 C 90.28 38.13 86.59 C.3 95 C495 0
11245 H 89.62 37.52 86.28 H 95 C495 0
11246 H 90.84 38.38 85.87 H 95 C495 0
11247 H 90.79 37.72 87.27 H 95 C495 0
11248 C 86.52 40.45 84.33 C.3 95 C495 0
11249 C 87.49 39.5 83.97 C.3 95 C495 0
11250 H 85.95 40.61 83.58 H 95 C495 0
11251 H 88.08 39.88 83.33 H 95 C495 0
11252 H 87.06 38.74 83.6 H 95 C495 0
11253 C1 88.28 39.09 85.23 C.3 95 C495 0
11254 O2 88.49 37.9 85.46 O.3 95 C495 0
11255 O3 88.76 40.04 86.07 O.3 95 C495 0
11256 C 87.21 41.76 84.75 C.3 95 C495 0
11257 H 86.55 42.4 84.99 H 95 C495 0
11258 H 87.77 41.59 85.5 H 95 C495 0
11259 H 87.73 42.09 84.03 H 95 C495 0
11260 C 83.45 39.71 87.25 C.3 95 C495 0
11261 C 84.42 40.68 87.5 C.3 95 C495 0
11262 H 82.88 39.62 88.01 H 95 C495 0
11263 H 85.01 40.38 88.18 H 95 C495 0
11264 H 84 41.49 87.79 H 95 C495 0
11265 C1 85.22 40.96 86.21 C.3 95 C495 0
11266 O2 85.42 42.11 85.85 O.3 95 C495 0
11267 O3 85.69 39.92 85.48 O.3 95 C495 0
11268 C 84.14 38.36 86.98 C.3 95 C495 0
11269 H 83.48 37.69 86.81 H 95 C495 0
11270 H 84.71 38.44 86.22 H 95 C495 0
11271 H 84.66 38.11 87.73 H 95 C495 0
11272 C 80.38 40.12 84.26 C.3 95 C495 0
11273 C 81.35 39.12 84.13 C.3 95 C495 0
11274 H 79.82 40.12 83.5 H 95 C495 0
11275 H 81.94 39.35 83.42 H 95 C495 0
11276 H 80.93 38.29 83.93 H 95 C495 0
11277 C1 82.15 38.99 85.44 C.3 95 C495 0
11278 O2 82.36 37.88 85.93 O.3 95 C495 0
11279 O3 82.63 40.11 86.05 O.3 95 C495 0
11280 C 81.07 41.49 84.39 C.3 95 C495 0
11281 H 80.41 42.17 84.49 H 95 C495 0
11282 H 81.64 41.49 85.15 H 95 C495 0
11283 H 81.59 41.66 83.61 H 95 C495 0
11284 C 77.31 40.04 87.28 C.3 95 C495 0
11285 C 78.28 41.05 87.31 C.3 95 C495 0
11286 H 76.75 40.12 88.04 H 95 C495 0
11287 H 78.88 40.9 88.04 H 95 C495 0
11288 H 77.86 41.89 87.41 H 95 C495 0
11289 C1 79.08 41.03 85.99 C.3 95 C495 0
11290 O2 79.29 42.08 85.38 O.3 95 C495 0
11291 O3 79.56 39.85 85.5 O.3 95 C495 0
11292 C 78.01 38.66 87.31 C.3 95 C495 0
11293 H 77.35 37.98 87.29 H 95 C495 0
11294 H 78.57 38.58 86.55 H 95 C495 0
11295 H 78.52 38.58 88.1 H 95 C495 0
11296 C 74.25 39.79 84.27 C.3 95 C495 0
11297 C 75.22 38.78 84.36 C.3 95 C495 0
11298 H 73.68 39.62 83.53 H 95 C495 0
11299 H 75.81 38.84 83.62 H 95 C495 0
11300 H 74.79 37.93 84.35 H 95 C495 0
11301 C1 76.01 38.94 85.67 C.3 95 C495 0
11302 O2 76.22 37.97 86.39 O.3 95 C495 0
11303 O3 76.49 40.17 86.02 O.3 95 C495 0
11304 C 74.94 41.15 84.1 C.3 95 C495 0
11305 H 74.28 41.83 84.04 H 95 C495 0
11306 H 75.5 41.32 84.84 H 95 C495 0
11307 H 75.46 41.14 83.3 H 95 C495 0
11308 C 71.18 40.37 87.24 C.3 95 C495 0
11309 C 72.15 41.36 87.04 C.3 95 C495 0
11310 H 70.61 40.62 87.96 H 95 C495 0
11311 H 72.74 41.38 87.78 H 95 C495 0
11312 H 71.73 42.21 86.95 H 95 C495 0
11313 C1 72.95 41.05 85.76 C.3 95 C495 0
11314 O2 73.15 41.94 84.93 O.3 95 C495 0
11315 O3 73.42 39.8 85.54 O.3 95 C495 0
11316 C 71.87 39.03 87.56 C.3 95 C495 0
11317 H 71.21 38.36 87.7 H 95 C495 0
11318 H 72.44 38.79 86.84 H 95 C495 0
11319 H 72.39 39.13 88.35 H 95 C495 0
11320 C 68.11 39.46 84.36 C.3 95 C495 0
11321 C 69.08 38.5 84.66 C.3 95 C495 0
11322 H 67.55 39.13 83.67 H 95 C495 0
11323 H 69.67 38.4 83.92 H 95 C495 0
11324 H 68.66 37.67 84.84 H 95 C495 0
11325 C1 69.88 38.95 85.9 C.3 95 C495 0
11326 O2 70.09 38.16 86.82 O.3 95 C495 0
11327 O3 70.36 40.22 85.98 O.3 95 C495 0
11328 C 68.8 40.75 83.88 C.3 95 C495 0
11329 H 68.14 41.41 83.68 H 95 C495 0
11330 H 69.37 41.08 84.57 H 95 C495 0
11331 H 69.32 40.57 83.11 H 95 C495 0
11332 C 65.04 40.68 87.12 C.3 95 C495 0
11333 C 66.01 41.61 86.71 C.3 95 C495 0
11334 H 64.48 41.09 87.77 H 95 C495 0
11335 H 66.6 41.79 87.43 H 95 C495 0
11336 H 65.59 42.41 86.44 H 95 C495 0
11337 C1 66.81 41.03 85.53 C.3 95 C495 0
11338 O2 67.02 41.71 84.53 O.3 95 C495 0
11339 O3 67.29 39.75 85.59 O.3 95 C495 0
11340 C 65.74 39.45 87.73 C.3 95 C495 0
11341 H 65.08 38.83 88.01 H 95 C495 0
11342 H 66.3 39.05 87.08 H 95 C495 0
11343 H 66.25 39.72 88.48 H 95 C495 0
11344 C 61.98 39.17 84.51 C.3 95 C495 0
11345 C 62.95 38.29 85.02 C.3 95 C495 0
11346 H 61.41 38.69 83.91 H 95 C495 0
11347 H 63.54 38.03 84.32 H 95 C495 0
11348 H 62.52 37.52 85.38 H 95 C495 0
11349 C1 63.74 39 86.13 C.3 95 C495 0
11350 O2 63.95 38.43 87.2 O.3 95 C495 0
11351 O3 64.22 40.26 85.93 O.3 95 C495 0
11352 C 62.67 40.32 83.76 C.3 95 C495 0
11353 H 62.01 40.91 83.42 H 95 C495 0
11354 H 63.23 40.79 84.36 H 95 C495 0
11355 H 63.19 39.97 83.05 H 95 C495 0
11356 C 58.91 40.96 86.93 C.3 95 C495 0
11357 C 59.88 41.77 86.33 C.3 95 C495 0
11358 H 58.34 41.5 87.48 H 95 C495 0
11359 H 60.47 42.11 87 H 95 C495 0
11360 H 59.46 42.5 85.89 H 95 C495 0
11361 C1 60.68 40.95 85.31 C.3 95 C495 0
11362 O2 60.88 41.4 84.18 O.3 95 C495 0
11363 O3 61.15 39.72 85.65 O.3 95 C495 0
11364 C 59.6 39.9 87.8 C.3 95 C495 0
11365 H 58.94 39.35 88.21 H 95 C495 0
11366 H 60.17 39.36 87.26 H 95 C495 0
11367 H 60.12 40.32 88.48 H 95 C495 0
11368 C 55.84 38.91 84.72 C.3 95 C495 0
11369 C 56.81 38.17 85.41 C.3 95 C495 0
11370 H 55.27 38.32 84.24 H 95 C495 0
11371 H 57.4 37.76 84.79 H 95 C495 0
11372 H 56.39 37.5 85.93 H 95 C495 0
11373 C1 57.61 39.1 86.34 C.3 95 C495 0
11374 O2 57.81 38.78 87.51 O.3 95 C495 0
11375 O3 58.09 40.29 85.86 O.3 95 C495 0
11376 C 56.53 39.87 83.74 C.3 95 C495 0
11377 H 55.87 40.38 83.28 H 95 C495 0
11378 H 57.1 40.46 84.22 H 95 C495 0
11379 H 57.05 39.38 83.12 H 95 C495 0
11380 C 52.77 41.2 86.69 C.3 95 C495 0
11381 C 53.74 41.86 85.93 C.3 95 C495 0
11382 H 52.21 41.84 87.11 H 95 C495 0
11383 H 54.33 42.33 86.5 H 95 C495 0
11384 H 53.32 42.47 85.34 H 95 C495 0
11385 C1 54.54 40.82 85.11 C.3 95 C495 0
11386 O2 54.75 41.01 83.91 O.3 95 C495 0
11387 O3 55.02 39.7 85.71 O.3 95 C495 0
11388 C 53.46 40.35 87.78 C.3 95 C495 0
11389 H 52.81 39.9 88.29 H 95 C495 0
11390 H 54.03 39.71 87.36 H 95 C495 0
11391 H 53.98 40.91 88.34 H 95 C495 0
11392 C 49.71 38.71 84.99 C.3 95 C495 0
11393 C 50.68 38.13 85.82 C.3 95 C495 0
11394 H 49.14 38.02 84.65 H 95 C495 0
11395 H 51.27 37.6 85.3 H 95 C495 0
11396 H 50.25 37.59 86.48 H 95 C495 0
11397 C1 51.47 39.25 86.52 C.3 95 C495 0
11398 O2 51.68 39.2 87.73 O.3 95 C495 0
11399 O3 51.95 40.3 85.8 O.3 95 C495 0
11400 C 50.4 39.43 83.82 C.3 95 C495 0
11401 H 49.74 39.82 83.25 H 95 C495 0
11402 H 50.96 40.11 84.16 H 95 C495 0
11403 H 50.91 38.81 83.32 H 95 C495 0
11404 C 46.64 41.37 86.41 C.3 95 C495 0
11405 C 47.61 41.85 85.52 C.3 95 C495 0
11406 H 46.07 42.09 86.67 H 95 C495 0
11407 H 48.2 42.43 85.97 H 95 C495 0
11408 H 47.19 42.31 84.81 H 95 C495 0
11409 C1 48.41 40.66 84.95 C.3 95 C495 0
11410 O2 48.61 40.58 83.74 O.3 95 C495 0
11411 O3 48.88 39.69 85.78 O.3 95 C495 0
11412 C 47.33 40.78 87.65 C.3 95 C495 0
11413 H 46.67 40.46 88.25 H 95 C495 0
11414 H 47.9 40.06 87.39 H 95 C495 0
11415 H 47.85 41.45 88.07 H 95 C495 0
11416 C 43.57 38.57 85.29 C.3 95 C495 0
11417 C 44.54 38.19 86.23 C.3 95 C495 0
11418 H 43.01 37.82 85.11 H 95 C495 0
11419 H 45.13 37.56 85.84 H 95 C495 0
11420 H 44.12 37.81 86.99 H 95 C495 0
11421 C1 45.34 39.44 86.67 C.3 95 C495 0
11422 O2 45.54 39.65 87.86 O.3 95 C495 0
11423 O3 45.82 40.3 85.73 O.3 95 C495 0
11424 C 44.26 39.02 83.99 C.3 95 C495 0
11425 H 43.6 39.27 83.36 H 95 C495 0
11426 H 44.83 39.76 84.17 H 95 C495 0
11427 H 44.78 38.3 83.64 H 95 C495 0
11428 C 40.5 41.48 86.09 C.3 95 C495 0
11429 C 41.47 41.74 85.12 C.3 95 C495 0
11430 H 39.94 42.23 86.19 H 95 C495 0
11431 H 42.06 42.42 85.43 H 95 C495 0
11432 H 41.05 42.04 84.32 H 95 C495 0
11433 C1 42.27 40.46 84.82 C.3 95 C495 0
11434 O2 42.48 40.12 83.66 O.3 95 C495 0
11435 O3 42.75 39.7 85.85 O.3 95 C495 0
11436 C 41.19 41.17 87.43 C.3 95 C495 0
11437 H 40.54 40.99 88.09 H 95 C495 0
11438 H 41.76 40.42 87.33 H 95 C495 0
11439 H 41.71 41.92 87.7 H 95 C495 0
11440 C 37.44 38.5 85.62 C.3 95 C495 0
11441 C 38.41 38.34 86.62 C.3 95 C495 0
11442 H 36.87 37.73 85.61 H 95 C495 0
11443 H 39 37.63 86.38 H 95 C495 0
11444 H 37.98 38.13 87.44 H 95 C495 0
11445 C1 39.2 39.65 86.77 C.3 95 C495 0
11446 O2 39.41 40.12 87.89 O.3 95 C495 0
11447 O3 39.68 40.29 85.67 O.3 95 C495 0
11448 C 38.13 38.65 84.25 C.3 95 C495 0
11449 H 37.47 38.76 83.58 H 95 C495 0
11450 H 38.69 39.41 84.27 H 95 C495 0
11451 H 38.64 37.87 84.07 H 95 C495 0
11452 C 34.37 41.51 85.76 C.3 95 C495 0
11453 C 35.34 41.56 84.75 C.3 95 C495 0
11454 H 33.8 42.27 85.69 H 95 C495 0
11455 H 35.93 42.28 84.91 H 95 C495 0
11456 H 34.91 41.67 83.91 H 95 C495 0
11457 C1 36.14 40.24 84.74 C.3 95 C495 0
11458 O2 36.34 39.65 83.68 O.3 95 C495 0
11459 O3 36.61 39.73 85.91 O.3 95 C495 0
11460 C 35.06 41.51 87.13 C.3 95 C495 0
11461 H 34.4 41.48 87.82 H 95 C495 0
11462 H 35.62 40.75 87.2 H 95 C495 0
11463 H 35.58 42.3 87.23 H 95 C495 0
11464 C 31.3 38.5 85.96 C.3 95 C495 0
11465 C 32.27 38.57 86.96 C.3 95 C495 0
11466 H 30.73 37.75 86.11 H 95 C495 0
11467 H 32.86 37.82 86.88 H 95 C495 0
11468 H 31.85 38.54 87.81 H 95 C495 0
11469 C1 33.07 39.88 86.82 C.3 95 C495 0
11470 O2 33.27 40.58 87.81 O.3 95 C495 0
11471 O3 33.54 40.25 85.61 O.3 95 C495 0
11472 C 31.99 38.35 84.59 C.3 95 C495 0
11473 H 31.33 38.3 83.9 H 95 C495 0
11474 H 32.56 39.1 84.43 H 95 C495 0
11475 H 32.51 37.55 84.58 H 95 C495 0
11476 C 28.23 41.47 85.43 C.3 95 C495 0
11477 C 29.2 41.3 84.43 C.3 95 C495 0
11478 H 27.67 42.2 85.19 H 95 C495 0
11479 H 29.79 42.04 84.43 H 95 C495 0
11480 H 28.78 41.22 83.59 H 95 C495 0
11481 C1 30 40.01 84.72 C.3 95 C495 0
11482 O2 30.21 39.2 83.81 O.3 95 C495 0
11483 O3 30.48 39.77 85.97 O.3 95 C495 0
11484 C 28.92 41.77 86.77 C.3 95 C495 0
11485 H 28.27 41.89 87.44 H 95 C495 0
11486 H 29.49 41.05 87 H 95 C495 0
11487 H 29.44 42.57 86.69 H 95 C495 0
11488 C 25.17 38.58 86.28 C.3 95 C495 0
11489 C 26.14 38.86 87.25 C.3 95 C495 0
11490 H 24.6 37.88 86.6 H 95 C495 0
11491 H 26.73 38.12 87.33 H 95 C495 0
11492 H 25.71 39.03 88.08 H 95 C495 0
11493 C1 26.93 40.11 86.82 C.3 95 C495 0
11494 O2 27.14 41.01 87.63 O.3 95 C495 0
11495 O3 27.41 40.21 85.56 O.3 95 C495 0
11496 C 25.86 38.13 84.98 C.3 95 C495 0
11497 H 25.2 37.94 84.32 H 95 C495 0
11498 H 26.42 38.82 84.67 H 95 C495 0
11499 H 26.37 37.35 85.15 H 95 C495 0
11500 C 22.1 41.36 85.11 C.3 95 C495 0
11501 C 23.07 40.97 84.18 C.3 95 C495 0
11502 H 21.53 42.02 84.72 H 95 C495 0
11503 H 23.66 41.69 84.01 H 95 C495 0
11504 H 22.64 40.71 83.37 H 95 C495 0
11505 C1 23.87 39.78 84.74 C.3 95 C495 0
11506 O2 24.07 38.79 84.04 O.3 95 C495 0
11507 O3 24.34 39.81 86.01 O.3 95 C495 0
11508 C 22.79 41.95 86.36 C.3 95 C495 0
11509 H 22.13 42.22 86.99 H 95 C495 0
11510 H 23.35 41.29 86.74 H 95 C495 0
11511 H 23.31 42.71 86.1 H 95 C495 0
11512 C 19.03 38.72 86.58 C.3 95 C495 0
11513 C 20 39.22 87.46 C.3 95 C495 0
11514 H 18.46 38.12 87.04 H 95 C495 0
11515 H 20.59 38.51 87.71 H 95 C495 0
11516 H 19.58 39.56 88.24 H 95 C495 0
11517 C1 20.8 40.34 86.77 C.3 95 C495 0
11518 O2 21 41.4 87.37 O.3 95 C495 0
11519 O3 21.27 40.16 85.51 O.3 95 C495 0
11520 C 19.72 38 85.41 C.3 95 C495 0
11521 H 19.06 37.67 84.81 H 95 C495 0
11522 H 20.29 38.61 84.95 H 95 C495 0
11523 H 20.24 37.28 85.75 H 95 C495 0
11524 C 15.96 41.18 84.83 C.3 95 C495 0
11525 C 16.93 40.6 84.01 C.3 95 C495 0
11526 H 15.4 41.74 84.31 H 95 C495 0
11527 H 17.52 41.27 83.69 H 95 C495 0
11528 H 16.51 40.17 83.27 H 95 C495 0
11529 C1 17.73 39.56 84.82 C.3 95 C495 0
11530 O2 17.94 38.44 84.35 O.3 95 C495 0
11531 O3 18.21 39.87 86.05 O.3 95 C495 0
11532 C 16.65 42.03 85.91 C.3 95 C495 0
11533 H 16 42.43 86.47 H 95 C495 0
11534 H 17.22 41.48 86.44 H 95 C495 0
11535 H 17.17 42.71 85.5 H 95 C495 0
11536 C 12.89 38.93 86.84 C.3 95 C495 0
11537 C 13.87 39.61 87.6 C.3 95 C495 0
11538 H 12.33 38.44 87.42 H 95 C495 0
11539 H 14.45 38.98 87.99 H 95 C495 0
11540 H 13.44 40.11 88.28 H 95 C495 0
11541 C1 14.66 40.55 86.68 C.3 95 C495 0
11542 O2 14.87 41.72 87.02 O.3 95 C495 0
11543 O3 15.14 40.1 85.49 O.3 95 C495 0
11544 C 13.59 37.97 85.86 C.3 95 C495 0
11545 H 12.93 37.51 85.35 H 95 C495 0
11546 H 14.15 38.46 85.28 H 95 C495 0
11547 H 14.1 37.34 86.35 H 95 C495 0
11548 C 9.83 40.95 84.59 C.3 95 C495 0
11549 C 10.8 40.19 83.92 C.3 95 C495 0
11550 H 9.26 41.37 83.96 H 95 C495 0
11551 H 11.39 40.78 83.46 H 95 C495 0
11552 H 10.37 39.61 83.3 H 95 C495 0
11553 C1 11.59 39.36 84.94 C.3 95 C495 0
11554 O2 11.8 38.16 84.72 O.3 95 C495 0
11555 O3 12.07 39.94 86.07 O.3 95 C495 0
11556 C 10.52 42.01 85.46 C.3 95 C495 0
11557 H 9.86 42.52 85.92 H 95 C495 0
11558 H 11.08 41.59 86.1 H 95 C495 0
11559 H 11.04 42.59 84.91 H 95 C495 0
11560 C 6.76 39.2 87.05 C.3 95 C495 0
11561 C 7.73 40.02 87.64 C.3 95 C495 0
11562 H 6.19 38.84 87.73 H 95 C495 0
11563 H 8.32 39.49 88.16 H 95 C495 0
11564 H 7.31 40.66 88.19 H 95 C495 0
11565 C1 8.53 40.74 86.53 C.3 95 C495 0
11566 O2 8.73 41.95 86.61 O.3 95 C495 0
11567 O3 9 40.04 85.47 O.3 95 C495 0
11568 C 7.45 38.04 86.3 C.3 95 C495 0
11569 H 6.79 37.48 85.91 H 95 C495 0
11570 H 8.02 38.39 85.63 H 95 C495 0
11571 H 7.97 37.53 86.92 H 95 C495 0
11572 H 3.17 40.23 85.08 H 96 C496 0
11573 C 3.69 40.66 84.41 C.3 96 C496 0
11574 C 4.66 39.78 83.92 C.3 96 C496 0
11575 H 3.13 40.94 83.7 H 96 C496 0
11576 H 5.25 40.25 83.35 H 96 C496 0
11577 H 4.24 39.08 83.44 H 96 C496 0
11578 C1 5.46 39.19 85.1 C.3 96 C496 0
11579 O2 5.67 37.98 85.16 O.3 96 C496 0
11580 O3 5.94 40 86.08 O.3 96 C496 0
11581 C 4.38 41.9 85.03 C.3 96 C496 0
11582 H 3.72 42.49 85.36 H 96 C496 0
11583 H 4.95 41.62 85.74 H 96 C496 0
11584 H 4.9 42.33 84.36 H 96 C496 0
11585 C 92.65 52.18 4.44 C.3 97 C497 0
11586 C 93.62 51.34 3.89 C.3 97 C497 0
11587 H 92.09 52.51 3.75 H 97 C497 0
11588 H 94.21 51.85 3.35 H 97 C497 0
11589 H 93.2 50.67 3.36 H 97 C497 0
11590 C1 94.42 50.66 5.02 C.3 97 C497 0
11591 O2 94.63 49.45 4.99 O.3 97 C497 0
11592 O3 94.9 51.4 6.05 O.3 97 C497 0
11593 H5 95.42 50.85 6.63 H 97 C497 0
11594 C 93.34 53.36 5.15 C.3 97 C497 0
11595 H 92.68 53.94 5.52 H 97 C497 0
11596 H 93.91 53.04 5.83 H 97 C497 0
11597 H 93.86 53.85 4.51 H 97 C497 0
11598 C 89.58 50.82 7.13 C.3 98 C498 0
11599 C 90.55 51.72 7.59 C.3 98 C498 0
11600 H 89.02 50.57 7.85 H 98 C498 0
11601 H 91.15 51.27 8.19 H 98 C498 0
11602 H 90.13 52.44 8.04 H 98 C498 0
11603 C1 91.35 52.26 6.39 C.3 98 C498 0
11604 O2 91.56 53.47 6.29 O.3 98 C498 0
11605 O3 91.83 51.41 5.45 O.3 98 C498 0
11606 C 90.28 49.56 6.57 C.3 98 C498 0
11607 H 89.62 48.95 6.26 H 98 C498 0
11608 H 90.84 49.81 5.85 H 98 C498 0
11609 H 90.79 49.15 7.25 H 98 C498 0
11610 C 86.52 51.88 4.31 C.3 98 C498 0
11611 C 87.49 50.93 3.95 C.3 98 C498 0
11612 H 85.95 52.04 3.56 H 98 C498 0
11613 H 88.08 51.31 3.31 H 98 C498 0
11614 H 87.06 50.17 3.58 H 98 C498 0
11615 C1 88.28 50.52 5.21 C.3 98 C498 0
11616 O2 88.49 49.33 5.44 O.3 98 C498 0
11617 O3 88.76 51.47 6.05 O.3 98 C498 0
11618 C 87.21 53.19 4.73 C.3 98 C498 0
11619 H 86.55 53.83 4.97 H 98 C498 0
11620 H 87.77 53.02 5.48 H 98 C498 0
11621 H 87.73 53.52 4.01 H 98 C498 0
11622 C 83.45 51.14 7.23 C.3 98 C498 0
11623 C 84.42 52.11 7.48 C.3 98 C498 0
11624 H 82.88 51.05 7.99 H 98 C498 0
11625 H 85.01 51.81 8.16 H 98 C498 0
11626 H 84 52.92 7.77 H 98 C498 0
11627 C1 85.22 52.39 6.19 C.3 98 C498 0
11628 O2 85.42 53.54 5.83 O.3 98 C498 0
11629 O3 85.69 51.35 5.46 O.3 98 C498 0
11630 C 84.14 49.79 6.96 C.3 98 C498 0
11631 H 83.48 49.12 6.79 H 98 C498 0
11632 H 84.71 49.87 6.2 H 98 C498 0
11633 H 84.66 49.54 7.71 H 98 C498 0
11634 C 80.38 51.55 4.24 C.3 98 C498 0
11635 C 81.35 50.55 4.11 C.3 98 C498 0
11636 H 79.82 51.55 3.48 H 98 C498 0
11637 H 81.94 50.78 3.4 H 98 C498 0
11638 H 80.93 49.72 3.91 H 98 C498 0
11639 C1 82.15 50.42 5.42 C.3 98 C498 0
11640 O2 82.36 49.31 5.91 O.3 98 C498 0
11641 O3 82.63 51.54 6.03 O.3 98 C498 0
11642 C 81.07 52.92 4.37 C.3 98 C498 0
11643 H 80.41 53.6 4.47 H 98 C498 0
11644 H 81.64 52.92 5.13 H 98 C498 0
11645 H 81.59 53.09 3.59 H 98 C498 0
11646 C 77.31 51.47 7.26 C.3 98 C498 0
11647 C 78.28 52.48 7.29 C.3 98 C498 0
11648 H 76.75 51.55 8.02 H 98 C498 0
11649 H 78.88 52.33 8.02 H 98 C498 0
11650 H 77.86 53.32 7.39 H 98 C498 0
11651 C1 79.08 52.46 5.97 C.3 98 C498 0
11652 O2 79.29 53.51 5.36 O.3 98 C498 0
11653 O3 79.56 51.28 5.48 O.3 98 C498 0
11654 C 78.01 50.09 7.29 C.3 98 C498 0
11655 H 77.35 49.41 7.27 H 98 C498 0
11656 H 78.57 50.01 6.53 H 98 C498 0
11657 H 78.52 50.01 8.08 H 98 C498 0
11658 C 74.25 51.22 4.25 C.3 98 C498 0
11659 C 75.22 50.21 4.34 C.3 98 C498 0
11660 H 73.68 51.05 3.51 H 98 C498 0
11661 H 75.81 50.27 3.6 H 98 C498 0
11662 H 74.79 49.36 4.33 H 98 C498 0
11663 C1 76.01 50.37 5.65 C.3 98 C498 0
11664 O2 76.22 49.4 6.37 O.3 98 C498 0
11665 O3 76.49 51.6 6 O.3 98 C498 0
11666 C 74.94 52.58 4.08 C.3 98 C498 0
11667 H 74.28 53.26 4.02 H 98 C498 0
11668 H 75.5 52.75 4.82 H 98 C498 0
11669 H 75.46 52.57 3.28 H 98 C498 0
11670 C 71.18 51.8 7.22 C.3 98 C498 0
11671 C 72.15 52.79 7.02 C.3 98 C498 0
11672 H 70.61 52.05 7.94 H 98 C498 0
11673 H 72.74 52.81 7.76 H 98 C498 0
11674 H 71.73 53.64 6.93 H 98 C498 0
11675 C1 72.95 52.48 5.74 C.3 98 C498 0
11676 O2 73.15 53.37 4.91 O.3 98 C498 0
11677 O3 73.42 51.23 5.52 O.3 98 C498 0
11678 C 71.87 50.46 7.54 C.3 98 C498 0
11679 H 71.21 49.79 7.68 H 98 C498 0
11680 H 72.44 50.22 6.82 H 98 C498 0
11681 H 72.39 50.56 8.33 H 98 C498 0
11682 C 68.11 50.89 4.34 C.3 98 C498 0
11683 C 69.08 49.93 4.64 C.3 98 C498 0
11684 H 67.55 50.56 3.65 H 98 C498 0
11685 H 69.67 49.83 3.9 H 98 C498 0
11686 H 68.66 49.1 4.82 H 98 C498 0
11687 C1 69.88 50.38 5.88 C.3 98 C498 0
11688 O2 70.09 49.59 6.8 O.3 98 C498 0
11689 O3 70.36 51.65 5.96 O.3 98 C498 0
11690 C 68.8 52.18 3.86 C.3 98 C498 0
11691 H 68.14 52.84 3.66 H 98 C498 0
11692 H 69.37 52.51 4.55 H 98 C498 0
11693 H 69.32 52 3.09 H 98 C498 0
11694 C 65.04 52.11 7.1 C.3 98 C498 0
11695 C 66.01 53.04 6.69 C.3 98 C498 0
11696 H 64.48 52.52 7.75 H 98 C498 0
11697 H 66.6 53.22 7.41 H 98 C498 0
11698 H 65.59 53.84 6.42 H 98 C498 0
11699 C1 66.81 52.46 5.51 C.3 98 C498 0
11700 O2 67.02 53.14 4.51 O.3 98 C498 0
11701 O3 67.29 51.18 5.57 O.3 98 C498 0
11702 C 65.74 50.88 7.71 C.3 98 C498 0
11703 H 65.08 50.26 7.99 H 98 C498 0
11704 H 66.3 50.48 7.06 H 98 C498 0
11705 H 66.25 51.15 8.46 H 98 C498 0
11706 C 61.98 50.6 4.49 C.3 98 C498 0
11707 C 62.95 49.72 5 C.3 98 C498 0
11708 H 61.41 50.12 3.89 H 98 C498 0
11709 H 63.54 49.46 4.3 H 98 C498 0
11710 H 62.52 48.95 5.36 H 98 C498 0
11711 C1 63.74 50.43 6.11 C.3 98 C498 0
11712 O2 63.95 49.86 7.18 O.3 98 C498 0
11713 O3 64.22 51.69 5.91 O.3 98 C498 0
11714 C 62.67 51.75 3.74 C.3 98 C498 0
11715 H 62.01 52.34 3.4 H 98 C498 0
11716 H 63.23 52.22 4.34 H 98 C498 0
11717 H 63.19 51.4 3.03 H 98 C498 0
11718 C 58.91 52.39 6.91 C.3 98 C498 0
11719 C 59.88 53.2 6.31 C.3 98 C498 0
11720 H 58.34 52.93 7.46 H 98 C498 0
11721 H 60.47 53.54 6.98 H 98 C498 0
11722 H 59.46 53.93 5.87 H 98 C498 0
11723 C1 60.68 52.38 5.29 C.3 98 C498 0
11724 O2 60.88 52.83 4.16 O.3 98 C498 0
11725 O3 61.15 51.15 5.63 O.3 98 C498 0
11726 C 59.6 51.33 7.78 C.3 98 C498 0
11727 H 58.94 50.78 8.19 H 98 C498 0
11728 H 60.17 50.79 7.24 H 98 C498 0
11729 H 60.12 51.75 8.46 H 98 C498 0
11730 C 55.84 50.34 4.7 C.3 98 C498 0
11731 C 56.81 49.6 5.39 C.3 98 C498 0
11732 H 55.27 49.75 4.22 H 98 C498 0
11733 H 57.4 49.19 4.77 H 98 C498 0
11734 H 56.39 48.93 5.91 H 98 C498 0
11735 C1 57.61 50.53 6.32 C.3 98 C498 0
11736 O2 57.81 50.21 7.49 O.3 98 C498 0
11737 O3 58.09 51.72 5.84 O.3 98 C498 0
11738 C 56.53 51.3 3.72 C.3 98 C498 0
11739 H 55.87 51.81 3.26 H 98 C498 0
11740 H 57.1 51.89 4.2 H 98 C498 0
11741 H 57.05 50.81 3.1 H 98 C498 0
11742 C 52.77 52.63 6.67 C.3 98 C498 0
11743 C 53.74 53.29 5.91 C.3 98 C498 0
11744 H 52.21 53.27 7.09 H 98 C498 0
11745 H 54.33 53.76 6.48 H 98 C498 0
11746 H 53.32 53.9 5.32 H 98 C498 0
11747 C1 54.54 52.25 5.09 C.3 98 C498 0
11748 O2 54.75 52.44 3.89 O.3 98 C498 0
11749 O3 55.02 51.13 5.69 O.3 98 C498 0
11750 C 53.46 51.78 7.76 C.3 98 C498 0
11751 H 52.81 51.33 8.27 H 98 C498 0
11752 H 54.03 51.14 7.34 H 98 C498 0
11753 H 53.98 52.34 8.32 H 98 C498 0
11754 C 49.71 50.14 4.97 C.3 98 C498 0
11755 C 50.68 49.56 5.8 C.3 98 C498 0
11756 H 49.14 49.45 4.63 H 98 C498 0
11757 H 51.27 49.03 5.28 H 98 C498 0
11758 H 50.25 49.02 6.46 H 98 C498 0
11759 C1 51.47 50.68 6.5 C.3 98 C498 0
11760 O2 51.68 50.63 7.71 O.3 98 C498 0
11761 O3 51.95 51.73 5.78 O.3 98 C498 0
11762 C 50.4 50.86 3.8 C.3 98 C498 0
11763 H 49.74 51.25 3.23 H 98 C498 0
11764 H 50.96 51.54 4.14 H 98 C498 0
11765 H 50.91 50.24 3.3 H 98 C498 0
11766 C 46.64 52.8 6.39 C.3 98 C498 0
11767 C 47.61 53.28 5.5 C.3 98 C498 0
11768 H 46.07 53.52 6.65 H 98 C498 0
11769 H 48.2 53.86 5.95 H 98 C498 0
11770 H 47.19 53.74 4.79 H 98 C498 0
11771 C1 48.41 52.09 4.93 C.3 98 C498 0
11772 O2 48.61 52.01 3.72 O.3 98 C498 0
11773 O3 48.88 51.12 5.76 O.3 98 C498 0
11774 C 47.33 52.21 7.63 C.3 98 C498 0
11775 H 46.67 51.89 8.23 H 98 C498 0
11776 H 47.9 51.49 7.37 H 98 C498 0
11777 H 47.85 52.88 8.05 H 98 C498 0
11778 C 43.57 50 5.27 C.3 98 C498 0
11779 C 44.54 49.62 6.21 C.3 98 C498 0
11780 H 43.01 49.25 5.09 H 98 C498 0
11781 H 45.13 48.99 5.82 H 98 C498 0
11782 H 44.12 49.24 6.97 H 98 C498 0
11783 C1 45.34 50.87 6.65 C.3 98 C498 0
11784 O2 45.54 51.08 7.84 O.3 98 C498 0
11785 O3 45.82 51.73 5.71 O.3 98 C498 0
11786 C 44.26 50.45 3.97 C.3 98 C498 0
11787 H 43.6 50.7 3.34 H 98 C498 0
11788 H 44.83 51.19 4.15 H 98 C498 0
11789 H 44.78 49.73 3.62 H 98 C498 0
11790 C 40.5 52.91 6.07 C.3 98 C498 0
11791 C 41.47 53.17 5.1 C.3 98 C498 0
11792 H 39.94 53.66 6.17 H 98 C498 0
11793 H 42.06 53.85 5.41 H 98 C498 0
11794 H 41.05 53.47 4.3 H 98 C498 0
11795 C1 42.27 51.89 4.8 C.3 98 C498 0
11796 O2 42.48 51.55 3.64 O.3 98 C498 0
11797 O3 42.75 51.13 5.83 O.3 98 C498 0
11798 C 41.19 52.6 7.41 C.3 98 C498 0
11799 H 40.54 52.42 8.07 H 98 C498 0
11800 H 41.76 51.85 7.31 H 98 C498 0
11801 H 41.71 53.35 7.68 H 98 C498 0
11802 C 37.44 49.93 5.6 C.3 98 C498 0
11803 C 38.41 49.77 6.6 C.3 98 C498 0
11804 H 36.87 49.16 5.59 H 98 C498 0
11805 H 39 49.06 6.36 H 98 C498 0
11806 H 37.98 49.56 7.42 H 98 C498 0
11807 C1 39.2 51.08 6.75 C.3 98 C498 0
11808 O2 39.41 51.55 7.87 O.3 98 C498 0
11809 O3 39.68 51.72 5.65 O.3 98 C498 0
11810 C 38.13 50.08 4.23 C.3 98 C498 0
11811 H 37.47 50.19 3.56 H 98 C498 0
11812 H 38.69 50.84 4.25 H 98 C498 0
11813 H 38.64 49.3 4.05 H 98 C498 0
11814 C 34.37 52.94 5.74 C.3 98 C498 0
11815 C 35.34 52.99 4.73 C.3 98 C498 0
11816 H 33.8 53.7 5.67 H 98 C498 0
11817 H 35.93 53.71 4.89 H 98 C498 0
11818 H 34.91 53.1 3.89 H 98 C498 0
11819 C1 36.14 51.67 4.72 C.3 98 C498 0
11820 O2 36.34 51.08 3.66 O.3 98 C498 0
11821 O3 36.61 51.16 5.89 O.3 98 C498 0
11822 C 35.06 52.94 7.11 C.3 98 C498 0
11823 H 34.4 52.91 7.8 H 98 C498 0
11824 H 35.62 52.18 7.18 H 98 C498 0
11825 H 35.58 53.73 7.21 H 98 C498 0
11826 C 31.3 49.93 5.94 C.3 98 C498 0
11827 C 32.27 50 6.94 C.3 98 C498 0
11828 H 30.73 49.18 6.09 H 98 C498 0
11829 H 32.86 49.25 6.86 H 98 C498 0
11830 H 31.85 49.97 7.79 H 98 C498 0
11831 C1 33.07 51.31 6.8 C.3 98 C498 0
11832 O2 33.27 52.01 7.79 O.3 98 C498 0
11833 O3 33.54 51.68 5.59 O.3 98 C498 0
11834 C 31.99 49.78 4.57 C.3 98 C498 0
11835 H 31.33 49.73 3.88 H 98 C498 0
11836 H 32.56 50.53 4.41 H 98 C498 0
11837 H 32.51 48.98 4.56 H 98 C498 0
11838 C 28.23 52.9 5.41 C.3 98 C498 0
11839 C 29.2 52.73 4.41 C.3 98 C498 0
11840 H 27.67 53.63 5.17 H 98 C498 0
11841 H 29.79 53.47 4.41 H 98 C498 0
11842 H 28.78 52.65 3.57 H 98 C498 0
11843 C1 30 51.44 4.7 C.3 98 C498 0
11844 O2 30.21 50.63 3.79 O.3 98 C498 0
11845 O3 30.48 51.2 5.95 O.3 98 C498 0
11846 C 28.92 53.2 6.75 C.3 98 C498 0
11847 H 28.27 53.32 7.42 H 98 C498 0
11848 H 29.49 52.48 6.98 H 98 C498 0
11849 H 29.44 54 6.67 H 98 C498 0
11850 C 25.17 50.01 6.26 C.3 98 C498 0
11851 C 26.14 50.29 7.23 C.3 98 C498 0
11852 H 24.6 49.31 6.58 H 98 C498 0
11853 H 26.73 49.55 7.31 H 98 C498 0
11854 H 25.71 50.46 8.06 H 98 C498 0
11855 C1 26.93 51.54 6.8 C.3 98 C498 0
11856 O2 27.14 52.44 7.61 O.3 98 C498 0
11857 O3 27.41 51.64 5.54 O.3 98 C498 0
11858 C 25.86 49.56 4.96 C.3 98 C498 0
11859 H 25.2 49.37 4.3 H 98 C498 0
11860 H 26.42 50.25 4.65 H 98 C498 0
11861 H 26.37 48.78 5.13 H 98 C498 0
11862 C 22.1 52.79 5.09 C.3 98 C498 0
11863 C 23.07 52.4 4.16 C.3 98 C498 0
11864 H 21.53 53.45 4.7 H 98 C498 0
11865 H 23.66 53.12 3.99 H 98 C498 0
11866 H 22.64 52.14 3.35 H 98 C498 0
11867 C1 23.87 51.21 4.72 C.3 98 C498 0
11868 O2 24.07 50.22 4.02 O.3 98 C498 0
11869 O3 24.34 51.24 5.99 O.3 98 C498 0
11870 C 22.79 53.38 6.34 C.3 98 C498 0
11871 H 22.13 53.65 6.97 H 98 C498 0
11872 H 23.35 52.72 6.72 H 98 C498 0
11873 H 23.31 54.14 6.08 H 98 C498 0
11874 C 19.03 50.15 6.56 C.3 98 C498 0
11875 C 20 50.65 7.44 C.3 98 C498 0
11876 H 18.46 49.55 7.02 H 98 C498 0
11877 H 20.59 49.94 7.69 H 98 C498 0
11878 H 19.58 50.99 8.22 H 98 C498 0
11879 C1 20.8 51.77 6.75 C.3 98 C498 0
11880 O2 21 52.83 7.35 O.3 98 C498 0
11881 O3 21.27 51.59 5.49 O.3 98 C498 0
11882 C 19.72 49.43 5.39 C.3 98 C498 0
11883 H 19.06 49.1 4.79 H 98 C498 0
11884 H 20.29 50.04 4.93 H 98 C498 0
11885 H 20.24 48.71 5.73 H 98 C498 0
11886 C 15.96 52.61 4.81 C.3 98 C498 0
11887 C 16.93 52.03 3.99 C.3 98 C498 0
11888 H 15.4 53.17 4.29 H 98 C498 0
11889 H 17.52 52.7 3.67 H 98 C498 0
11890 H 16.51 51.6 3.25 H 98 C498 0
11891 C1 17.73 50.99 4.8 C.3 98 C498 0
11892 O2 17.94 49.87 4.33 O.3 98 C498 0
11893 O3 18.21 51.3 6.03 O.3 98 C498 0
11894 C 16.65 53.46 5.89 C.3 98 C498 0
11895 H 16 53.86 6.45 H 98 C498 0
11896 H 17.22 52.91 6.42 H 98 C498 0
11897 H 17.17 54.14 5.48 H 98 C498 0
11898 C 12.89 50.36 6.82 C.3 98 C498 0
11899 C 13.87 51.04 7.58 C.3 98 C498 0
11900 H 12.33 49.87 7.4 H 98 C498 0
11901 H 14.45 50.41 7.97 H 98 C498 0
11902 H 13.44 51.54 8.26 H 98 C498 0
11903 C1 14.66 51.98 6.66 C.3 98 C498 0
11904 O2 14.87 53.15 7 O.3 98 C498 0
11905 O3 15.14 51.53 5.47 O.3 98 C498 0
11906 C 13.59 49.4 5.84 C.3 98 C498 0
11907 H 12.93 48.94 5.33 H 98 C498 0
11908 H 14.15 49.89 5.26 H 98 C498 0
11909 H 14.1 48.77 6.33 H 98 C498 0
11910 C 9.83 52.38 4.57 C.3 98 C498 0
11911 C 10.8 51.62 3.9 C.3 98 C498 0
11912 H 9.26 52.8 3.94 H 98 C498 0
11913 H 11.39 52.21 3.44 H 98 C498 0
11914 H 10.37 51.04 3.28 H 98 C498 0
11915 C1 11.59 50.79 4.92 C.3 98 C498 0
11916 O2 11.8 49.59 4.7 O.3 98 C498 0
11917 O3 12.07 51.37 6.05 O.3 98 C498 0
11918 C 10.52 53.44 5.44 C.3 98 C498 0
11919 H 9.86 53.95 5.9 H 98 C498 0
11920 H 11.08 53.02 6.08 H 98 C498 0
11921 H 11.04 54.02 4.89 H 98 C498 0
11922 C 6.76 50.63 7.03 C.3 98 C498 0
11923 C 7.73 51.45 7.62 C.3 98 C498 0
11924 H 6.19 50.27 7.71 H 98 C498 0
11925 H 8.32 50.92 8.14 H 98 C498 0
11926 H 7.31 52.09 8.17 H 98 C498 0
11927 C1 8.53 52.17 6.51 C.3 98 C498 0
11928 O2 8.73 53.38 6.59 O.3 98 C498 0
11929 O3 9 51.47 5.45 O.3 98 C498 0
11930 C 7.45 49.47 6.28 C.3 98 C498 0
11931 H 6.79 48.91 5.89 H 98 C498 0
11932 H 8.02 49.82 5.61 H 98 C498 0
11933 H 7.97 48.96 6.9 H 98 C498 0
11934 H 3.17 51.66 5.06 H 99 C499 0
11935 C 3.69 52.09 4.39 C.3 99 C499 0
11936 C 4.66 51.21 3.9 C.3 99 C499 0
11937 H 3.13 52.37 3.68 H 99 C499 0
11938 H 5.25 51.68 3.33 H 99 C499 0
11939 H 4.24 50.51 3.42 H 99 C499 0
11940 C1 5.46 50.62 5.08 C.3 99 C499 0
11941 O2 5.67 49.41 5.14 O.3 99 C499 0
11942 O3 5.94 51.43 6.06 O.3 99 C499 0
11943 C 4.38 53.33 5.01 C.3 99 C499 0
11944 H 3.72 53.92 5.34 H 99 C499 0
11945 H 4.95 53.05 5.72 H 99 C499 0
11946 H 4.9 53.76 4.34 H 99 C499 0
11947 C 92.65 52.18 15.87 C.3 100 C4100 0
11948 C 93.62 51.34 15.32 C.3 100 C4100 0
11949 H 92.09 52.51 15.18 H 100 C4100 0
11950 H 94.21 51.85 14.78 H 100 C4100 0
11951 H 93.2 50.67 14.79 H 100 C4100 0
11952 C1 94.42 50.66 16.45 C.3 100 C4100 0
11953 O2 94.63 49.45 16.42 O.3 100 C4100 0
11954 O3 94.9 51.4 17.48 O.3 100 C4100 0
11955 H5 95.42 50.85 18.06 H 100 C4100 0
11956 C 93.34 53.36 16.58 C.3 100 C4100 0
11957 H 92.68 53.94 16.95 H 100 C4100 0
11958 H 93.91 53.04 17.26 H 100 C4100 0
11959 H 93.86 53.85 15.94 H 100 C4100 0
11960 C 89.58 50.82 18.56 C.3 101 C4101 0
11961 C 90.55 51.72 19.02 C.3 101 C4101 0
11962 H 89.02 50.57 19.28 H 101 C4101 0
11963 H 91.15 51.27 19.62 H 101 C4101 0
11964 H 90.13 52.44 19.47 H 101 C4101 0
11965 C1 91.35 52.26 17.82 C.3 101 C4101 0
11966 O2 91.56 53.47 17.72 O.3 101 C4101 0
11967 O3 91.83 51.41 16.88 O.3 101 C4101 0
11968 C 90.28 49.56 18 C.3 101 C4101 0
11969 H 89.62 48.95 17.69 H 101 C4101 0
11970 H 90.84 49.81 17.28 H 101 C4101 0
11971 H 90.79 49.15 18.68 H 101 C4101 0
11972 C 86.52 51.88 15.74 C.3 101 C4101 0
11973 C 87.49 50.93 15.38 C.3 101 C4101 0
11974 H 85.95 52.04 14.99 H 101 C4101 0
11975 H 88.08 51.31 14.74 H 101 C4101 0
11976 H 87.06 50.17 15.01 H 101 C4101 0
11977 C1 88.28 50.52 16.64 C.3 101 C4101 0
11978 O2 88.49 49.33 16.87 O.3 101 C4101 0
11979 O3 88.76 51.47 17.48 O.3 101 C4101 0
11980 C 87.21 53.19 16.16 C.3 101 C4101 0
11981 H 86.55 53.83 16.4 H 101 C4101 0
11982 H 87.77 53.02 16.91 H 101 C4101 0
11983 H 87.73 53.52 15.44 H 101 C4101 0
11984 C 83.45 51.14 18.66 C.3 101 C4101 0
11985 C 84.42 52.11 18.91 C.3 101 C4101 0
11986 H 82.88 51.05 19.42 H 101 C4101 0
11987 H 85.01 51.81 19.59 H 101 C4101 0
11988 H 84 52.92 19.2 H 101 C4101 0
11989 C1 85.22 52.39 17.62 C.3 101 C4101 0
11990 O2 85.42 53.54 17.26 O.3 101 C4101 0
11991 O3 85.69 51.35 16.89 O.3 101 C4101 0
11992 C 84.14 49.79 18.39 C.3 101 C4101 0
11993 H 83.48 49.12 18.22 H 101 C4101 0
11994 H 84.71 49.87 17.63 H 101 C4101 0
11995 H 84.66 49.54 19.14 H 101 C4101 0
11996 C 80.38 51.55 15.67 C.3 101 C4101 0
11997 C 81.35 50.55 15.54 C.3 101 C4101 0
11998 H 79.82 51.55 14.91 H 101 C4101 0
11999 H 81.94 50.78 14.83 H 101 C4101 0
12000 H 80.93 49.72 15.34 H 101 C4101 0
12001 C1 82.15 50.42 16.85 C.3 101 C4101 0
12002 O2 82.36 49.31 17.34 O.3 101 C4101 0
12003 O3 82.63 51.54 17.46 O.3 101 C4101 0
12004 C 81.07 52.92 15.8 C.3 101 C4101 0
12005 H 80.41 53.6 15.9 H 101 C4101 0
12006 H 81.64 52.92 16.56 H 101 C4101 0
12007 H 81.59 53.09 15.02 H 101 C4101 0
12008 C 77.31 51.47 18.69 C.3 101 C4101 0
12009 C 78.28 52.48 18.72 C.3 101 C4101 0
12010 H 76.75 51.55 19.45 H 101 C4101 0
12011 H 78.88 52.33 19.45 H 101 C4101 0
12012 H 77.86 53.32 18.82 H 101 C4101 0
12013 C1 79.08 52.46 17.4 C.3 101 C4101 0
12014 O2 79.29 53.51 16.79 O.3 101 C4101 0
12015 O3 79.56 51.28 16.91 O.3 101 C4101 0
12016 C 78.01 50.09 18.72 C.3 101 C4101 0
12017 H 77.35 49.41 18.7 H 101 C4101 0
12018 H 78.57 50.01 17.96 H 101 C4101 0
12019 H 78.52 50.01 19.51 H 101 C4101 0
12020 C 74.25 51.22 15.68 C.3 101 C4101 0
12021 C 75.22 50.21 15.77 C.3 101 C4101 0
12022 H 73.68 51.05 14.94 H 101 C4101 0
12023 H 75.81 50.27 15.03 H 101 C4101 0
12024 H 74.79 49.36 15.76 H 101 C4101 0
12025 C1 76.01 50.37 17.08 C.3 101 C4101 0
12026 O2 76.22 49.4 17.8 O.3 101 C4101 0
12027 O3 76.49 51.6 17.43 O.3 101 C4101 0
12028 C 74.94 52.58 15.51 C.3 101 C4101 0
12029 H 74.28 53.26 15.45 H 101 C4101 0
12030 H 75.5 52.75 16.25 H 101 C4101 0
12031 H 75.46 52.57 14.71 H 101 C4101 0
12032 C 71.18 51.8 18.65 C.3 101 C4101 0
12033 C 72.15 52.79 18.45 C.3 101 C4101 0
12034 H 70.61 52.05 19.37 H 101 C4101 0
12035 H 72.74 52.81 19.19 H 101 C4101 0
12036 H 71.73 53.64 18.36 H 101 C4101 0
12037 C1 72.95 52.48 17.17 C.3 101 C4101 0
12038 O2 73.15 53.37 16.34 O.3 101 C4101 0
12039 O3 73.42 51.23 16.95 O.3 101 C4101 0
12040 C 71.87 50.46 18.97 C.3 101 C4101 0
12041 H 71.21 49.79 19.11 H 101 C4101 0
12042 H 72.44 50.22 18.25 H 101 C4101 0
12043 H 72.39 50.56 19.76 H 101 C4101 0
12044 C 68.11 50.89 15.77 C.3 101 C4101 0
12045 C 69.08 49.93 16.07 C.3 101 C4101 0
12046 H 67.55 50.56 15.08 H 101 C4101 0
12047 H 69.67 49.83 15.33 H 101 C4101 0
12048 H 68.66 49.1 16.25 H 101 C4101 0
12049 C1 69.88 50.38 17.31 C.3 101 C4101 0
12050 O2 70.09 49.59 18.23 O.3 101 C4101 0
12051 O3 70.36 51.65 17.39 O.3 101 C4101 0
12052 C 68.8 52.18 15.29 C.3 101 C4101 0
12053 H 68.14 52.84 15.09 H 101 C4101 0
12054 H 69.37 52.51 15.98 H 101 C4101 0
12055 H 69.32 52 14.52 H 101 C4101 0
12056 C 65.04 52.11 18.53 C.3 101 C4101 0
12057 C 66.01 53.04 18.12 C.3 101 C4101 0
12058 H 64.48 52.52 19.18 H 101 C4101 0
12059 H 66.6 53.22 18.84 H 101 C4101 0
12060 H 65.59 53.84 17.85 H 101 C4101 0
12061 C1 66.81 52.46 16.94 C.3 101 C4101 0
12062 O2 67.02 53.14 15.94 O.3 101 C4101 0
12063 O3 67.29 51.18 17 O.3 101 C4101 0
12064 C 65.74 50.88 19.14 C.3 101 C4101 0
12065 H 65.08 50.26 19.42 H 101 C4101 0
12066 H 66.3 50.48 18.49 H 101 C4101 0
12067 H 66.25 51.15 19.89 H 101 C4101 0
12068 C 61.98 50.6 15.92 C.3 101 C4101 0
12069 C 62.95 49.72 16.43 C.3 101 C4101 0
12070 H 61.41 50.12 15.32 H 101 C4101 0
12071 H 63.54 49.46 15.73 H 101 C4101 0
12072 H 62.52 48.95 16.79 H 101 C4101 0
12073 C1 63.74 50.43 17.54 C.3 101 C4101 0
12074 O2 63.95 49.86 18.61 O.3 101 C4101 0
12075 O3 64.22 51.69 17.34 O.3 101 C4101 0
12076 C 62.67 51.75 15.17 C.3 101 C4101 0
12077 H 62.01 52.34 14.83 H 101 C4101 0
12078 H 63.23 52.22 15.77 H 101 C4101 0
12079 H 63.19 51.4 14.46 H 101 C4101 0
12080 C 58.91 52.39 18.34 C.3 101 C4101 0
12081 C 59.88 53.2 17.74 C.3 101 C4101 0
12082 H 58.34 52.93 18.89 H 101 C4101 0
12083 H 60.47 53.54 18.41 H 101 C4101 0
12084 H 59.46 53.93 17.3 H 101 C4101 0
12085 C1 60.68 52.38 16.72 C.3 101 C4101 0
12086 O2 60.88 52.83 15.59 O.3 101 C4101 0
12087 O3 61.15 51.15 17.06 O.3 101 C4101 0
12088 C 59.6 51.33 19.21 C.3 101 C4101 0
12089 H 58.94 50.78 19.62 H 101 C4101 0
12090 H 60.17 50.79 18.67 H 101 C4101 0
12091 H 60.12 51.75 19.89 H 101 C4101 0
12092 C 55.84 50.34 16.13 C.3 101 C4101 0
12093 C 56.81 49.6 16.82 C.3 101 C4101 0
12094 H 55.27 49.75 15.65 H 101 C4101 0
12095 H 57.4 49.19 16.2 H 101 C4101 0
12096 H 56.39 48.93 17.34 H 101 C4101 0
12097 C1 57.61 50.53 17.75 C.3 101 C4101 0
12098 O2 57.81 50.21 18.92 O.3 101 C4101 0
12099 O3 58.09 51.72 17.27 O.3 101 C4101 0
12100 C 56.53 51.3 15.15 C.3 101 C4101 0
12101 H 55.87 51.81 14.69 H 101 C4101 0
12102 H 57.1 51.89 15.63 H 101 C4101 0
12103 H 57.05 50.81 14.53 H 101 C4101 0
12104 C 52.77 52.63 18.1 C.3 101 C4101 0
12105 C 53.74 53.29 17.34 C.3 101 C4101 0
12106 H 52.21 53.27 18.52 H 101 C4101 0
12107 H 54.33 53.76 17.91 H 101 C4101 0
12108 H 53.32 53.9 16.75 H 101 C4101 0
12109 C1 54.54 52.25 16.52 C.3 101 C4101 0
12110 O2 54.75 52.44 15.32 O.3 101 C4101 0
12111 O3 55.02 51.13 17.12 O.3 101 C4101 0
12112 C 53.46 51.78 19.19 C.3 101 C4101 0
12113 H 52.81 51.33 19.7 H 101 C4101 0
12114 H 54.03 51.14 18.77 H 101 C4101 0
12115 H 53.98 52.34 19.75 H 101 C4101 0
12116 C 49.71 50.14 16.4 C.3 101 C4101 0
12117 C 50.68 49.56 17.23 C.3 101 C4101 0
12118 H 49.14 49.45 16.06 H 101 C4101 0
12119 H 51.27 49.03 16.71 H 101 C4101 0
12120 H 50.25 49.02 17.89 H 101 C4101 0
12121 C1 51.47 50.68 17.93 C.3 101 C4101 0
12122 O2 51.68 50.63 19.14 O.3 101 C4101 0
12123 O3 51.95 51.73 17.21 O.3 101 C4101 0
12124 C 50.4 50.86 15.23 C.3 101 C4101 0
12125 H 49.74 51.25 14.66 H 101 C4101 0
12126 H 50.96 51.54 15.57 H 101 C4101 0
12127 H 50.91 50.24 14.73 H 101 C4101 0
12128 C 46.64 52.8 17.82 C.3 101 C4101 0
12129 C 47.61 53.28 16.93 C.3 101 C4101 0
12130 H 46.07 53.52 18.08 H 101 C4101 0
12131 H 48.2 53.86 17.38 H 101 C4101 0
12132 H 47.19 53.74 16.22 H 101 C4101 0
12133 C1 48.41 52.09 16.36 C.3 101 C4101 0
12134 O2 48.61 52.01 15.15 O.3 101 C4101 0
12135 O3 48.88 51.12 17.19 O.3 101 C4101 0
12136 C 47.33 52.21 19.06 C.3 101 C4101 0
12137 H 46.67 51.89 19.66 H 101 C4101 0
12138 H 47.9 51.49 18.8 H 101 C4101 0
12139 H 47.85 52.88 19.48 H 101 C4101 0
12140 C 43.57 50 16.7 C.3 101 C4101 0
12141 C 44.54 49.62 17.64 C.3 101 C4101 0
12142 H 43.01 49.25 16.52 H 101 C4101 0
12143 H 45.13 48.99 17.25 H 101 C4101 0
12144 H 44.12 49.24 18.4 H 101 C4101 0
12145 C1 45.34 50.87 18.08 C.3 101 C4101 0
12146 O2 45.54 51.08 19.27 O.3 101 C4101 0
12147 O3 45.82 51.73 17.14 O.3 101 C4101 0
12148 C 44.26 50.45 15.4 C.3 101 C4101 0
12149 H 43.6 50.7 14.77 H 101 C4101 0
12150 H 44.83 51.19 15.58 H 101 C4101 0
12151 H 44.78 49.73 15.05 H 101 C4101 0
12152 C 40.5 52.91 17.5 C.3 101 C4101 0
12153 C 41.47 53.17 16.53 C.3 101 C4101 0
12154 H 39.94 53.66 17.6 H 101 C4101 0
12155 H 42.06 53.85 16.84 H 101 C4101 0
12156 H 41.05 53.47 15.73 H 101 C4101 0
12157 C1 42.27 51.89 16.23 C.3 101 C4101 0
12158 O2 42.48 51.55 15.07 O.3 101 C4101 0
12159 O3 42.75 51.13 17.26 O.3 101 C4101 0
12160 C 41.19 52.6 18.84 C.3 101 C4101 0
12161 H 40.54 52.42 19.5 H 101 C4101 0
12162 H 41.76 51.85 18.74 H 101 C4101 0
12163 H 41.71 53.35 19.11 H 101 C4101 0
12164 C 37.44 49.93 17.03 C.3 101 C4101 0
12165 C 38.41 49.77 18.03 C.3 101 C4101 0
12166 H 36.87 49.16 17.02 H 101 C4101 0
12167 H 39 49.06 17.79 H 101 C4101 0
12168 H 37.98 49.56 18.85 H 101 C4101 0
12169 C1 39.2 51.08 18.18 C.3 101 C4101 0
12170 O2 39.41 51.55 19.3 O.3 101 C4101 0
12171 O3 39.68 51.72 17.08 O.3 101 C4101 0
12172 C 38.13 50.08 15.66 C.3 101 C4101 0
12173 H 37.47 50.19 14.99 H 101 C4101 0
12174 H 38.69 50.84 15.68 H 101 C4101 0
12175 H 38.64 49.3 15.48 H 101 C4101 0
12176 C 34.37 52.94 17.17 C.3 101 C4101 0
12177 C 35.34 52.99 16.16 C.3 101 C4101 0
12178 H 33.8 53.7 17.1 H 101 C4101 0
12179 H 35.93 53.71 16.32 H 101 C4101 0
12180 H 34.91 53.1 15.32 H 101 C4101 0
12181 C1 36.14 51.67 16.15 C.3 101 C4101 0
12182 O2 36.34 51.08 15.09 O.3 101 C4101 0
12183 O3 36.61 51.16 17.32 O.3 101 C4101 0
12184 C 35.06 52.94 18.54 C.3 101 C4101 0
12185 H 34.4 52.91 19.23 H 101 C4101 0
12186 H 35.62 52.18 18.61 H 101 C4101 0
12187 H 35.58 53.73 18.64 H 101 C4101 0
12188 C 31.3 49.93 17.37 C.3 101 C4101 0
12189 C 32.27 50 18.37 C.3 101 C4101 0
12190 H 30.73 49.18 17.52 H 101 C4101 0
12191 H 32.86 49.25 18.29 H 101 C4101 0
12192 H 31.85 49.97 19.22 H 101 C4101 0
12193 C1 33.07 51.31 18.23 C.3 101 C4101 0
12194 O2 33.27 52.01 19.22 O.3 101 C4101 0
12195 O3 33.54 51.68 17.02 O.3 101 C4101 0
12196 C 31.99 49.78 16 C.3 101 C4101 0
12197 H 31.33 49.73 15.31 H 101 C4101 0
12198 H 32.56 50.53 15.84 H 101 C4101 0
12199 H 32.51 48.98 15.99 H 101 C4101 0
12200 C 28.23 52.9 16.84 C.3 101 C4101 0
12201 C 29.2 52.73 15.84 C.3 101 C4101 0
12202 H 27.67 53.63 16.6 H 101 C4101 0
12203 H 29.79 53.47 15.84 H 101 C4101 0
12204 H 28.78 52.65 15 H 101 C4101 0
12205 C1 30 51.44 16.13 C.3 101 C4101 0
12206 O2 30.21 50.63 15.22 O.3 101 C4101 0
12207 O3 30.48 51.2 17.38 O.3 101 C4101 0
12208 C 28.92 53.2 18.18 C.3 101 C4101 0
12209 H 28.27 53.32 18.85 H 101 C4101 0
12210 H 29.49 52.48 18.41 H 101 C4101 0
12211 H 29.44 54 18.1 H 101 C4101 0
12212 C 25.17 50.01 17.69 C.3 101 C4101 0
12213 C 26.14 50.29 18.66 C.3 101 C4101 0
12214 H 24.6 49.31 18.01 H 101 C4101 0
12215 H 26.73 49.55 18.74 H 101 C4101 0
12216 H 25.71 50.46 19.49 H 101 C4101 0
12217 C1 26.93 51.54 18.23 C.3 101 C4101 0
12218 O2 27.14 52.44 19.04 O.3 101 C4101 0
12219 O3 27.41 51.64 16.97 O.3 101 C4101 0
12220 C 25.86 49.56 16.39 C.3 101 C4101 0
12221 H 25.2 49.37 15.73 H 101 C4101 0
12222 H 26.42 50.25 16.08 H 101 C4101 0
12223 H 26.37 48.78 16.56 H 101 C4101 0
12224 C 22.1 52.79 16.52 C.3 101 C4101 0
12225 C 23.07 52.4 15.59 C.3 101 C4101 0
12226 H 21.53 53.45 16.13 H 101 C4101 0
12227 H 23.66 53.12 15.42 H 101 C4101 0
12228 H 22.64 52.14 14.78 H 101 C4101 0
12229 C1 23.87 51.21 16.15 C.3 101 C4101 0
12230 O2 24.07 50.22 15.45 O.3 101 C4101 0
12231 O3 24.34 51.24 17.42 O.3 101 C4101 0
12232 C 22.79 53.38 17.77 C.3 101 C4101 0
12233 H 22.13 53.65 18.4 H 101 C4101 0
12234 H 23.35 52.72 18.15 H 101 C4101 0
12235 H 23.31 54.14 17.51 H 101 C4101 0
12236 C 19.03 50.15 17.99 C.3 101 C4101 0
12237 C 20 50.65 18.87 C.3 101 C4101 0
12238 H 18.46 49.55 18.45 H 101 C4101 0
12239 H 20.59 49.94 19.12 H 101 C4101 0
12240 H 19.58 50.99 19.65 H 101 C4101 0
12241 C1 20.8 51.77 18.18 C.3 101 C4101 0
12242 O2 21 52.83 18.78 O.3 101 C4101 0
12243 O3 21.27 51.59 16.92 O.3 101 C4101 0
12244 C 19.72 49.43 16.82 C.3 101 C4101 0
12245 H 19.06 49.1 16.22 H 101 C4101 0
12246 H 20.29 50.04 16.36 H 101 C4101 0
12247 H 20.24 48.71 17.16 H 101 C4101 0
12248 C 15.96 52.61 16.24 C.3 101 C4101 0
12249 C 16.93 52.03 15.42 C.3 101 C4101 0
12250 H 15.4 53.17 15.72 H 101 C4101 0
12251 H 17.52 52.7 15.1 H 101 C4101 0
12252 H 16.51 51.6 14.68 H 101 C4101 0
12253 C1 17.73 50.99 16.23 C.3 101 C4101 0
12254 O2 17.94 49.87 15.76 O.3 101 C4101 0
12255 O3 18.21 51.3 17.46 O.3 101 C4101 0
12256 C 16.65 53.46 17.32 C.3 101 C4101 0
12257 H 16 53.86 17.88 H 101 C4101 0
12258 H 17.22 52.91 17.85 H 101 C4101 0
12259 H 17.17 54.14 16.91 H 101 C4101 0
12260 C 12.89 50.36 18.25 C.3 101 C4101 0
12261 C 13.87 51.04 19.01 C.3 101 C4101 0
12262 H 12.33 49.87 18.83 H 101 C4101 0
12263 H 14.45 50.41 19.4 H 101 C4101 0
12264 H 13.44 51.54 19.69 H 101 C4101 0
12265 C1 14.66 51.98 18.09 C.3 101 C4101 0
12266 O2 14.87 53.15 18.43 O.3 101 C4101 0
12267 O3 15.14 51.53 16.9 O.3 101 C4101 0
12268 C 13.59 49.4 17.27 C.3 101 C4101 0
12269 H 12.93 48.94 16.76 H 101 C4101 0
12270 H 14.15 49.89 16.69 H 101 C4101 0
12271 H 14.1 48.77 17.76 H 101 C4101 0
12272 C 9.83 52.38 16 C.3 101 C4101 0
12273 C 10.8 51.62 15.33 C.3 101 C4101 0
12274 H 9.26 52.8 15.37 H 101 C4101 0
12275 H 11.39 52.21 14.87 H 101 C4101 0
12276 H 10.37 51.04 14.71 H 101 C4101 0
12277 C1 11.59 50.79 16.35 C.3 101 C4101 0
12278 O2 11.8 49.59 16.13 O.3 101 C4101 0
12279 O3 12.07 51.37 17.48 O.3 101 C4101 0
12280 C 10.52 53.44 16.87 C.3 101 C4101 0
12281 H 9.86 53.95 17.33 H 101 C4101 0
12282 H 11.08 53.02 17.51 H 101 C4101 0
12283 H 11.04 54.02 16.32 H 101 C4101 0
12284 C 6.76 50.63 18.46 C.3 101 C4101 0
12285 C 7.73 51.45 19.05 C.3 101 C4101 0
12286 H 6.19 50.27 19.14 H 101 C4101 0
12287 H 8.32 50.92 19.57 H 101 C4101 0
12288 H 7.31 52.09 19.6 H 101 C4101 0
12289 C1 8.53 52.17 17.94 C.3 101 C4101 0
12290 O2 8.73 53.38 18.02 O.3 101 C4101 0
12291 O3 9 51.47 16.88 O.3 101 C4101 0
12292 C 7.45 49.47 17.71 C.3 101 C4101 0
12293 H 6.79 48.91 17.32 H 101 C4101 0
12294 H 8.02 49.82 17.04 H 101 C4101 0
12295 H 7.97 48.96 18.33 H 101 C4101 0
12296 H 3.17 51.66 16.49 H 102 C4102 0
12297 C 3.69 52.09 15.82 C.3 102 C4102 0
12298 C 4.66 51.21 15.33 C.3 102 C4102 0
12299 H 3.13 52.37 15.11 H 102 C4102 0
12300 H 5.25 51.68 14.76 H 102 C4102 0
12301 H 4.24 50.51 14.85 H 102 C4102 0
12302 C1 5.46 50.62 16.51 C.3 102 C4102 0
12303 O2 5.67 49.41 16.57 O.3 102 C4102 0
12304 O3 5.94 51.43 17.49 O.3 102 C4102 0
12305 C 4.38 53.33 16.44 C.3 102 C4102 0
12306 H 3.72 53.92 16.77 H 102 C4102 0
12307 H 4.95 53.05 17.15 H 102 C4102 0
12308 H 4.9 53.76 15.77 H 102 C4102 0
12309 C 92.65 52.18 27.3 C.3 103 C4103 0
12310 C 93.62 51.34 26.75 C.3 103 C4103 0
12311 H 92.09 52.51 26.61 H 103 C4103 0
12312 H 94.21 51.85 26.21 H 103 C4103 0
12313 H 93.2 50.67 26.22 H 103 C4103 0
12314 C1 94.42 50.66 27.88 C.3 103 C4103 0
12315 O2 94.63 49.45 27.85 O.3 103 C4103 0
12316 O3 94.9 51.4 28.91 O.3 103 C4103 0
12317 H5 95.42 50.85 29.49 H 103 C4103 0
12318 C 93.34 53.36 28.01 C.3 103 C4103 0
12319 H 92.68 53.94 28.38 H 103 C4103 0
12320 H 93.91 53.04 28.69 H 103 C4103 0
12321 H 93.86 53.85 27.37 H 103 C4103 0
12322 C 89.58 50.82 29.99 C.3 104 C4104 0
12323 C 90.55 51.72 30.45 C.3 104 C4104 0
12324 H 89.02 50.57 30.71 H 104 C4104 0
12325 H 91.15 51.27 31.05 H 104 C4104 0
12326 H 90.13 52.44 30.9 H 104 C4104 0
12327 C1 91.35 52.26 29.25 C.3 104 C4104 0
12328 O2 91.56 53.47 29.15 O.3 104 C4104 0
12329 O3 91.83 51.41 28.31 O.3 104 C4104 0
12330 C 90.28 49.56 29.43 C.3 104 C4104 0
12331 H 89.62 48.95 29.12 H 104 C4104 0
12332 H 90.84 49.81 28.71 H 104 C4104 0
12333 H 90.79 49.15 30.11 H 104 C4104 0
12334 C 86.52 51.88 27.17 C.3 104 C4104 0
12335 C 87.49 50.93 26.81 C.3 104 C4104 0
12336 H 85.95 52.04 26.42 H 104 C4104 0
12337 H 88.08 51.31 26.17 H 104 C4104 0
12338 H 87.06 50.17 26.44 H 104 C4104 0
12339 C1 88.28 50.52 28.07 C.3 104 C4104 0
12340 O2 88.49 49.33 28.3 O.3 104 C4104 0
12341 O3 88.76 51.47 28.91 O.3 104 C4104 0
12342 C 87.21 53.19 27.59 C.3 104 C4104 0
12343 H 86.55 53.83 27.83 H 104 C4104 0
12344 H 87.77 53.02 28.34 H 104 C4104 0
12345 H 87.73 53.52 26.87 H 104 C4104 0
12346 C 83.45 51.14 30.09 C.3 104 C4104 0
12347 C 84.42 52.11 30.34 C.3 104 C4104 0
12348 H 82.88 51.05 30.85 H 104 C4104 0
12349 H 85.01 51.81 31.02 H 104 C4104 0
12350 H 84 52.92 30.63 H 104 C4104 0
12351 C1 85.22 52.39 29.05 C.3 104 C4104 0
12352 O2 85.42 53.54 28.69 O.3 104 C4104 0
12353 O3 85.69 51.35 28.32 O.3 104 C4104 0
12354 C 84.14 49.79 29.82 C.3 104 C4104 0
12355 H 83.48 49.12 29.65 H 104 C4104 0
12356 H 84.71 49.87 29.06 H 104 C4104 0
12357 H 84.66 49.54 30.57 H 104 C4104 0
12358 C 80.38 51.55 27.1 C.3 104 C4104 0
12359 C 81.35 50.55 26.97 C.3 104 C4104 0
12360 H 79.82 51.55 26.34 H 104 C4104 0
12361 H 81.94 50.78 26.26 H 104 C4104 0
12362 H 80.93 49.72 26.77 H 104 C4104 0
12363 C1 82.15 50.42 28.28 C.3 104 C4104 0
12364 O2 82.36 49.31 28.77 O.3 104 C4104 0
12365 O3 82.63 51.54 28.89 O.3 104 C4104 0
12366 C 81.07 52.92 27.23 C.3 104 C4104 0
12367 H 80.41 53.6 27.33 H 104 C4104 0
12368 H 81.64 52.92 27.99 H 104 C4104 0
12369 H 81.59 53.09 26.45 H 104 C4104 0
12370 C 77.31 51.47 30.12 C.3 104 C4104 0
12371 C 78.28 52.48 30.15 C.3 104 C4104 0
12372 H 76.75 51.55 30.88 H 104 C4104 0
12373 H 78.88 52.33 30.88 H 104 C4104 0
12374 H 77.86 53.32 30.25 H 104 C4104 0
12375 C1 79.08 52.46 28.83 C.3 104 C4104 0
12376 O2 79.29 53.51 28.22 O.3 104 C4104 0
12377 O3 79.56 51.28 28.34 O.3 104 C4104 0
12378 C 78.01 50.09 30.15 C.3 104 C4104 0
12379 H 77.35 49.41 30.13 H 104 C4104 0
12380 H 78.57 50.01 29.39 H 104 C4104 0
12381 H 78.52 50.01 30.94 H 104 C4104 0
12382 C 74.25 51.22 27.11 C.3 104 C4104 0
12383 C 75.22 50.21 27.2 C.3 104 C4104 0
12384 H 73.68 51.05 26.37 H 104 C4104 0
12385 H 75.81 50.27 26.46 H 104 C4104 0
12386 H 74.79 49.36 27.19 H 104 C4104 0
12387 C1 76.01 50.37 28.51 C.3 104 C4104 0
12388 O2 76.22 49.4 29.23 O.3 104 C4104 0
12389 O3 76.49 51.6 28.86 O.3 104 C4104 0
12390 C 74.94 52.58 26.94 C.3 104 C4104 0
12391 H 74.28 53.26 26.88 H 104 C4104 0
12392 H 75.5 52.75 27.68 H 104 C4104 0
12393 H 75.46 52.57 26.14 H 104 C4104 0
12394 C 71.18 51.8 30.08 C.3 104 C4104 0
12395 C 72.15 52.79 29.88 C.3 104 C4104 0
12396 H 70.61 52.05 30.8 H 104 C4104 0
12397 H 72.74 52.81 30.62 H 104 C4104 0
12398 H 71.73 53.64 29.79 H 104 C4104 0
12399 C1 72.95 52.48 28.6 C.3 104 C4104 0
12400 O2 73.15 53.37 27.77 O.3 104 C4104 0
12401 O3 73.42 51.23 28.38 O.3 104 C4104 0
12402 C 71.87 50.46 30.4 C.3 104 C4104 0
12403 H 71.21 49.79 30.54 H 104 C4104 0
12404 H 72.44 50.22 29.68 H 104 C4104 0
12405 H 72.39 50.56 31.19 H 104 C4104 0
12406 C 68.11 50.89 27.2 C.3 104 C4104 0
12407 C 69.08 49.93 27.5 C.3 104 C4104 0
12408 H 67.55 50.56 26.51 H 104 C4104 0
12409 H 69.67 49.83 26.76 H 104 C4104 0
12410 H 68.66 49.1 27.68 H 104 C4104 0
12411 C1 69.88 50.38 28.74 C.3 104 C4104 0
12412 O2 70.09 49.59 29.66 O.3 104 C4104 0
12413 O3 70.36 51.65 28.82 O.3 104 C4104 0
12414 C 68.8 52.18 26.72 C.3 104 C4104 0
12415 H 68.14 52.84 26.52 H 104 C4104 0
12416 H 69.37 52.51 27.41 H 104 C4104 0
12417 H 69.32 52 25.95 H 104 C4104 0
12418 C 65.04 52.11 29.96 C.3 104 C4104 0
12419 C 66.01 53.04 29.55 C.3 104 C4104 0
12420 H 64.48 52.52 30.61 H 104 C4104 0
12421 H 66.6 53.22 30.27 H 104 C4104 0
12422 H 65.59 53.84 29.28 H 104 C4104 0
12423 C1 66.81 52.46 28.37 C.3 104 C4104 0
12424 O2 67.02 53.14 27.37 O.3 104 C4104 0
12425 O3 67.29 51.18 28.43 O.3 104 C4104 0
12426 C 65.74 50.88 30.57 C.3 104 C4104 0
12427 H 65.08 50.26 30.85 H 104 C4104 0
12428 H 66.3 50.48 29.92 H 104 C4104 0
12429 H 66.25 51.15 31.32 H 104 C4104 0
12430 C 61.98 50.6 27.35 C.3 104 C4104 0
12431 C 62.95 49.72 27.86 C.3 104 C4104 0
12432 H 61.41 50.12 26.75 H 104 C4104 0
12433 H 63.54 49.46 27.16 H 104 C4104 0
12434 H 62.52 48.95 28.22 H 104 C4104 0
12435 C1 63.74 50.43 28.97 C.3 104 C4104 0
12436 O2 63.95 49.86 30.04 O.3 104 C4104 0
12437 O3 64.22 51.69 28.77 O.3 104 C4104 0
12438 C 62.67 51.75 26.6 C.3 104 C4104 0
12439 H 62.01 52.34 26.26 H 104 C4104 0
12440 H 63.23 52.22 27.2 H 104 C4104 0
12441 H 63.19 51.4 25.89 H 104 C4104 0
12442 C 58.91 52.39 29.77 C.3 104 C4104 0
12443 C 59.88 53.2 29.17 C.3 104 C4104 0
12444 H 58.34 52.93 30.32 H 104 C4104 0
12445 H 60.47 53.54 29.84 H 104 C4104 0
12446 H 59.46 53.93 28.73 H 104 C4104 0
12447 C1 60.68 52.38 28.15 C.3 104 C4104 0
12448 O2 60.88 52.83 27.02 O.3 104 C4104 0
12449 O3 61.15 51.15 28.49 O.3 104 C4104 0
12450 C 59.6 51.33 30.64 C.3 104 C4104 0
12451 H 58.94 50.78 31.05 H 104 C4104 0
12452 H 60.17 50.79 30.1 H 104 C4104 0
12453 H 60.12 51.75 31.32 H 104 C4104 0
12454 C 55.84 50.34 27.56 C.3 104 C4104 0
12455 C 56.81 49.6 28.25 C.3 104 C4104 0
12456 H 55.27 49.75 27.08 H 104 C4104 0
12457 H 57.4 49.19 27.63 H 104 C4104 0
12458 H 56.39 48.93 28.77 H 104 C4104 0
12459 C1 57.61 50.53 29.18 C.3 104 C4104 0
12460 O2 57.81 50.21 30.35 O.3 104 C4104 0
12461 O3 58.09 51.72 28.7 O.3 104 C4104 0
12462 C 56.53 51.3 26.58 C.3 104 C4104 0
12463 H 55.87 51.81 26.12 H 104 C4104 0
12464 H 57.1 51.89 27.06 H 104 C4104 0
12465 H 57.05 50.81 25.96 H 104 C4104 0
12466 C 52.77 52.63 29.53 C.3 104 C4104 0
12467 C 53.74 53.29 28.77 C.3 104 C4104 0
12468 H 52.21 53.27 29.95 H 104 C4104 0
12469 H 54.33 53.76 29.34 H 104 C4104 0
12470 H 53.32 53.9 28.18 H 104 C4104 0
12471 C1 54.54 52.25 27.95 C.3 104 C4104 0
12472 O2 54.75 52.44 26.75 O.3 104 C4104 0
12473 O3 55.02 51.13 28.55 O.3 104 C4104 0
12474 C 53.46 51.78 30.62 C.3 104 C4104 0
12475 H 52.81 51.33 31.13 H 104 C4104 0
12476 H 54.03 51.14 30.2 H 104 C4104 0
12477 H 53.98 52.34 31.18 H 104 C4104 0
12478 C 49.71 50.14 27.83 C.3 104 C4104 0
12479 C 50.68 49.56 28.66 C.3 104 C4104 0
12480 H 49.14 49.45 27.49 H 104 C4104 0
12481 H 51.27 49.03 28.14 H 104 C4104 0
12482 H 50.25 49.02 29.32 H 104 C4104 0
12483 C1 51.47 50.68 29.36 C.3 104 C4104 0
12484 O2 51.68 50.63 30.57 O.3 104 C4104 0
12485 O3 51.95 51.73 28.64 O.3 104 C4104 0
12486 C 50.4 50.86 26.66 C.3 104 C4104 0
12487 H 49.74 51.25 26.09 H 104 C4104 0
12488 H 50.96 51.54 27 H 104 C4104 0
12489 H 50.91 50.24 26.16 H 104 C4104 0
12490 C 46.64 52.8 29.25 C.3 104 C4104 0
12491 C 47.61 53.28 28.36 C.3 104 C4104 0
12492 H 46.07 53.52 29.51 H 104 C4104 0
12493 H 48.2 53.86 28.81 H 104 C4104 0
12494 H 47.19 53.74 27.65 H 104 C4104 0
12495 C1 48.41 52.09 27.79 C.3 104 C4104 0
12496 O2 48.61 52.01 26.58 O.3 104 C4104 0
12497 O3 48.88 51.12 28.62 O.3 104 C4104 0
12498 C 47.33 52.21 30.49 C.3 104 C4104 0
12499 H 46.67 51.89 31.09 H 104 C4104 0
12500 H 47.9 51.49 30.23 H 104 C4104 0
12501 H 47.85 52.88 30.91 H 104 C4104 0
12502 C 43.57 50 28.13 C.3 104 C4104 0
12503 C 44.54 49.62 29.07 C.3 104 C4104 0
12504 H 43.01 49.25 27.95 H 104 C4104 0
12505 H 45.13 48.99 28.68 H 104 C4104 0
12506 H 44.12 49.24 29.83 H 104 C4104 0
12507 C1 45.34 50.87 29.51 C.3 104 C4104 0
12508 O2 45.54 51.08 30.7 O.3 104 C4104 0
12509 O3 45.82 51.73 28.57 O.3 104 C4104 0
12510 C 44.26 50.45 26.83 C.3 104 C4104 0
12511 H 43.6 50.7 26.2 H 104 C4104 0
12512 H 44.83 51.19 27.01 H 104 C4104 0
12513 H 44.78 49.73 26.48 H 104 C4104 0
12514 C 40.5 52.91 28.93 C.3 104 C4104 0
12515 C 41.47 53.17 27.96 C.3 104 C4104 0
12516 H 39.94 53.66 29.03 H 104 C4104 0
12517 H 42.06 53.85 28.27 H 104 C4104 0
12518 H 41.05 53.47 27.16 H 104 C4104 0
12519 C1 42.27 51.89 27.66 C.3 104 C4104 0
12520 O2 42.48 51.55 26.5 O.3 104 C4104 0
12521 O3 42.75 51.13 28.69 O.3 104 C4104 0
12522 C 41.19 52.6 30.27 C.3 104 C4104 0
12523 H 40.54 52.42 30.93 H 104 C4104 0
12524 H 41.76 51.85 30.17 H 104 C4104 0
12525 H 41.71 53.35 30.54 H 104 C4104 0
12526 C 37.44 49.93 28.46 C.3 104 C4104 0
12527 C 38.41 49.77 29.46 C.3 104 C4104 0
12528 H 36.87 49.16 28.45 H 104 C4104 0
12529 H 39 49.06 29.22 H 104 C4104 0
12530 H 37.98 49.56 30.28 H 104 C4104 0
12531 C1 39.2 51.08 29.61 C.3 104 C4104 0
12532 O2 39.41 51.55 30.73 O.3 104 C4104 0
12533 O3 39.68 51.72 28.51 O.3 104 C4104 0
12534 C 38.13 50.08 27.09 C.3 104 C4104 0
12535 H 37.47 50.19 26.42 H 104 C4104 0
12536 H 38.69 50.84 27.11 H 104 C4104 0
12537 H 38.64 49.3 26.91 H 104 C4104 0
12538 C 34.37 52.94 28.6 C.3 104 C4104 0
12539 C 35.34 52.99 27.59 C.3 104 C4104 0
12540 H 33.8 53.7 28.53 H 104 C4104 0
12541 H 35.93 53.71 27.75 H 104 C4104 0
12542 H 34.91 53.1 26.75 H 104 C4104 0
12543 C1 36.14 51.67 27.58 C.3 104 C4104 0
12544 O2 36.34 51.08 26.52 O.3 104 C4104 0
12545 O3 36.61 51.16 28.75 O.3 104 C4104 0
12546 C 35.06 52.94 29.97 C.3 104 C4104 0
12547 H 34.4 52.91 30.66 H 104 C4104 0
12548 H 35.62 52.18 30.04 H 104 C4104 0
12549 H 35.58 53.73 30.07 H 104 C4104 0
12550 C 31.3 49.93 28.8 C.3 104 C4104 0
12551 C 32.27 50 29.8 C.3 104 C4104 0
12552 H 30.73 49.18 28.95 H 104 C4104 0
12553 H 32.86 49.25 29.72 H 104 C4104 0
12554 H 31.85 49.97 30.65 H 104 C4104 0
12555 C1 33.07 51.31 29.66 C.3 104 C4104 0
12556 O2 33.27 52.01 30.65 O.3 104 C4104 0
12557 O3 33.54 51.68 28.45 O.3 104 C4104 0
12558 C 31.99 49.78 27.43 C.3 104 C4104 0
12559 H 31.33 49.73 26.74 H 104 C4104 0
12560 H 32.56 50.53 27.27 H 104 C4104 0
12561 H 32.51 48.98 27.42 H 104 C4104 0
12562 C 28.23 52.9 28.27 C.3 104 C4104 0
12563 C 29.2 52.73 27.27 C.3 104 C4104 0
12564 H 27.67 53.63 28.03 H 104 C4104 0
12565 H 29.79 53.47 27.27 H 104 C4104 0
12566 H 28.78 52.65 26.43 H 104 C4104 0
12567 C1 30 51.44 27.56 C.3 104 C4104 0
12568 O2 30.21 50.63 26.65 O.3 104 C4104 0
12569 O3 30.48 51.2 28.81 O.3 104 C4104 0
12570 C 28.92 53.2 29.61 C.3 104 C4104 0
12571 H 28.27 53.32 30.28 H 104 C4104 0
12572 H 29.49 52.48 29.84 H 104 C4104 0
12573 H 29.44 54 29.53 H 104 C4104 0
12574 C 25.17 50.01 29.12 C.3 104 C4104 0
12575 C 26.14 50.29 30.09 C.3 104 C4104 0
12576 H 24.6 49.31 29.44 H 104 C4104 0
12577 H 26.73 49.55 30.17 H 104 C4104 0
12578 H 25.71 50.46 30.92 H 104 C4104 0
12579 C1 26.93 51.54 29.66 C.3 104 C4104 0
12580 O2 27.14 52.44 30.47 O.3 104 C4104 0
12581 O3 27.41 51.64 28.4 O.3 104 C4104 0
12582 C 25.86 49.56 27.82 C.3 104 C4104 0
12583 H 25.2 49.37 27.16 H 104 C4104 0
12584 H 26.42 50.25 27.51 H 104 C4104 0
12585 H 26.37 48.78 27.99 H 104 C4104 0
12586 C 22.1 52.79 27.95 C.3 104 C4104 0
12587 C 23.07 52.4 27.02 C.3 104 C4104 0
12588 H 21.53 53.45 27.56 H 104 C4104 0
12589 H 23.66 53.12 26.85 H 104 C4104 0
12590 H 22.64 52.14 26.21 H 104 C4104 0
12591 C1 23.87 51.21 27.58 C.3 104 C4104 0
12592 O2 24.07 50.22 26.88 O.3 104 C4104 0
12593 O3 24.34 51.24 28.85 O.3 104 C4104 0
12594 C 22.79 53.38 29.2 C.3 104 C4104 0
12595 H 22.13 53.65 29.83 H 104 C4104 0
12596 H 23.35 52.72 29.58 H 104 C4104 0
12597 H 23.31 54.14 28.94 H 104 C4104 0
12598 C 19.03 50.15 29.42 C.3 104 C4104 0
12599 C 20 50.65 30.3 C.3 104 C4104 0
12600 H 18.46 49.55 29.88 H 104 C4104 0
12601 H 20.59 49.94 30.55 H 104 C4104 0
12602 H 19.58 50.99 31.08 H 104 C4104 0
12603 C1 20.8 51.77 29.61 C.3 104 C4104 0
12604 O2 21 52.83 30.21 O.3 104 C4104 0
12605 O3 21.27 51.59 28.35 O.3 104 C4104 0
12606 C 19.72 49.43 28.25 C.3 104 C4104 0
12607 H 19.06 49.1 27.65 H 104 C4104 0
12608 H 20.29 50.04 27.79 H 104 C4104 0
12609 H 20.24 48.71 28.59 H 104 C4104 0
12610 C 15.96 52.61 27.67 C.3 104 C4104 0
12611 C 16.93 52.03 26.85 C.3 104 C4104 0
12612 H 15.4 53.17 27.15 H 104 C4104 0
12613 H 17.52 52.7 26.53 H 104 C4104 0
12614 H 16.51 51.6 26.11 H 104 C4104 0
12615 C1 17.73 50.99 27.66 C.3 104 C4104 0
12616 O2 17.94 49.87 27.19 O.3 104 C4104 0
12617 O3 18.21 51.3 28.89 O.3 104 C4104 0
12618 C 16.65 53.46 28.75 C.3 104 C4104 0
12619 H 16 53.86 29.31 H 104 C4104 0
12620 H 17.22 52.91 29.28 H 104 C4104 0
12621 H 17.17 54.14 28.34 H 104 C4104 0
12622 C 12.89 50.36 29.68 C.3 104 C4104 0
12623 C 13.87 51.04 30.44 C.3 104 C4104 0
12624 H 12.33 49.87 30.26 H 104 C4104 0
12625 H 14.45 50.41 30.83 H 104 C4104 0
12626 H 13.44 51.54 31.12 H 104 C4104 0
12627 C1 14.66 51.98 29.52 C.3 104 C4104 0
12628 O2 14.87 53.15 29.86 O.3 104 C4104 0
12629 O3 15.14 51.53 28.33 O.3 104 C4104 0
12630 C 13.59 49.4 28.7 C.3 104 C4104 0
12631 H 12.93 48.94 28.19 H 104 C4104 0
12632 H 14.15 49.89 28.12 H 104 C4104 0
12633 H 14.1 48.77 29.19 H 104 C4104 0
12634 C 9.83 52.38 27.43 C.3 104 C4104 0
12635 C 10.8 51.62 26.76 C.3 104 C4104 0
12636 H 9.26 52.8 26.8 H 104 C4104 0
12637 H 11.39 52.21 26.3 H 104 C4104 0
12638 H 10.37 51.04 26.14 H 104 C4104 0
12639 C1 11.59 50.79 27.78 C.3 104 C4104 0
12640 O2 11.8 49.59 27.56 O.3 104 C4104 0
12641 O3 12.07 51.37 28.91 O.3 104 C4104 0
12642 C 10.52 53.44 28.3 C.3 104 C4104 0
12643 H 9.86 53.95 28.76 H 104 C4104 0
12644 H 11.08 53.02 28.94 H 104 C4104 0
12645 H 11.04 54.02 27.75 H 104 C4104 0
12646 C 6.76 50.63 29.89 C.3 104 C4104 0
12647 C 7.73 51.45 30.48 C.3 104 C4104 0
12648 H 6.19 50.27 30.57 H 104 C4104 0
12649 H 8.32 50.92 31 H 104 C4104 0
12650 H 7.31 52.09 31.03 H 104 C4104 0
12651 C1 8.53 52.17 29.37 C.3 104 C4104 0
12652 O2 8.73 53.38 29.45 O.3 104 C4104 0
12653 O3 9 51.47 28.31 O.3 104 C4104 0
12654 C 7.45 49.47 29.14 C.3 104 C4104 0
12655 H 6.79 48.91 28.75 H 104 C4104 0
12656 H 8.02 49.82 28.47 H 104 C4104 0
12657 H 7.97 48.96 29.76 H 104 C4104 0
12658 H 3.17 51.66 27.92 H 105 C4105 0
12659 C 3.69 52.09 27.25 C.3 105 C4105 0
12660 C 4.66 51.21 26.76 C.3 105 C4105 0
12661 H 3.13 52.37 26.54 H 105 C4105 0
12662 H 5.25 51.68 26.19 H 105 C4105 0
12663 H 4.24 50.51 26.28 H 105 C4105 0
12664 C1 5.46 50.62 27.94 C.3 105 C4105 0
12665 O2 5.67 49.41 28 O.3 105 C4105 0
12666 O3 5.94 51.43 28.92 O.3 105 C4105 0
12667 C 4.38 53.33 27.87 C.3 105 C4105 0
12668 H 3.72 53.92 28.2 H 105 C4105 0
12669 H 4.95 53.05 28.58 H 105 C4105 0
12670 H 4.9 53.76 27.2 H 105 C4105 0
12671 C 92.65 52.18 38.73 C.3 106 C4106 0
12672 C 93.62 51.34 38.18 C.3 106 C4106 0
12673 H 92.09 52.51 38.04 H 106 C4106 0
12674 H 94.21 51.85 37.64 H 106 C4106 0
12675 H 93.2 50.67 37.65 H 106 C4106 0
12676 C1 94.42 50.66 39.31 C.3 106 C4106 0
12677 O2 94.63 49.45 39.28 O.3 106 C4106 0
12678 O3 94.9 51.4 40.34 O.3 106 C4106 0
12679 H5 95.42 50.85 40.92 H 106 C4106 0
12680 C 93.34 53.36 39.44 C.3 106 C4106 0
12681 H 92.68 53.94 39.81 H 106 C4106 0
12682 H 93.91 53.04 40.12 H 106 C4106 0
12683 H 93.86 53.85 38.8 H 106 C4106 0
12684 C 89.58 50.82 41.42 C.3 107 C4107 0
12685 C 90.55 51.72 41.88 C.3 107 C4107 0
12686 H 89.02 50.57 42.14 H 107 C4107 0
12687 H 91.15 51.27 42.48 H 107 C4107 0
12688 H 90.13 52.44 42.33 H 107 C4107 0
12689 C1 91.35 52.26 40.68 C.3 107 C4107 0
12690 O2 91.56 53.47 40.58 O.3 107 C4107 0
12691 O3 91.83 51.41 39.74 O.3 107 C4107 0
12692 C 90.28 49.56 40.86 C.3 107 C4107 0
12693 H 89.62 48.95 40.55 H 107 C4107 0
12694 H 90.84 49.81 40.14 H 107 C4107 0
12695 H 90.79 49.15 41.54 H 107 C4107 0
12696 C 86.52 51.88 38.6 C.3 107 C4107 0
12697 C 87.49 50.93 38.24 C.3 107 C4107 0
12698 H 85.95 52.04 37.85 H 107 C4107 0
12699 H 88.08 51.31 37.6 H 107 C4107 0
12700 H 87.06 50.17 37.87 H 107 C4107 0
12701 C1 88.28 50.52 39.5 C.3 107 C4107 0
12702 O2 88.49 49.33 39.73 O.3 107 C4107 0
12703 O3 88.76 51.47 40.34 O.3 107 C4107 0
12704 C 87.21 53.19 39.02 C.3 107 C4107 0
12705 H 86.55 53.83 39.26 H 107 C4107 0
12706 H 87.77 53.02 39.77 H 107 C4107 0
12707 H 87.73 53.52 38.3 H 107 C4107 0
12708 C 83.45 51.14 41.52 C.3 107 C4107 0
12709 C 84.42 52.11 41.77 C.3 107 C4107 0
12710 H 82.88 51.05 42.28 H 107 C4107 0
12711 H 85.01 51.81 42.45 H 107 C4107 0
12712 H 84 52.92 42.06 H 107 C4107 0
12713 C1 85.22 52.39 40.48 C.3 107 C4107 0
12714 O2 85.42 53.54 40.12 O.3 107 C4107 0
12715 O3 85.69 51.35 39.75 O.3 107 C4107 0
12716 C 84.14 49.79 41.25 C.3 107 C4107 0
12717 H 83.48 49.12 41.08 H 107 C4107 0
12718 H 84.71 49.87 40.49 H 107 C4107 0
12719 H 84.66 49.54 42 H 107 C4107 0
12720 C 80.38 51.55 38.53 C.3 107 C4107 0
12721 C 81.35 50.55 38.4 C.3 107 C4107 0
12722 H 79.82 51.55 37.77 H 107 C4107 0
12723 H 81.94 50.78 37.69 H 107 C4107 0
12724 H 80.93 49.72 38.2 H 107 C4107 0
12725 C1 82.15 50.42 39.71 C.3 107 C4107 0
12726 O2 82.36 49.31 40.2 O.3 107 C4107 0
12727 O3 82.63 51.54 40.32 O.3 107 C4107 0
12728 C 81.07 52.92 38.66 C.3 107 C4107 0
12729 H 80.41 53.6 38.76 H 107 C4107 0
12730 H 81.64 52.92 39.42 H 107 C4107 0
12731 H 81.59 53.09 37.88 H 107 C4107 0
12732 C 77.31 51.47 41.55 C.3 107 C4107 0
12733 C 78.28 52.48 41.58 C.3 107 C4107 0
12734 H 76.75 51.55 42.31 H 107 C4107 0
12735 H 78.88 52.33 42.31 H 107 C4107 0
12736 H 77.86 53.32 41.68 H 107 C4107 0
12737 C1 79.08 52.46 40.26 C.3 107 C4107 0
12738 O2 79.29 53.51 39.65 O.3 107 C4107 0
12739 O3 79.56 51.28 39.77 O.3 107 C4107 0
12740 C 78.01 50.09 41.58 C.3 107 C4107 0
12741 H 77.35 49.41 41.56 H 107 C4107 0
12742 H 78.57 50.01 40.82 H 107 C4107 0
12743 H 78.52 50.01 42.37 H 107 C4107 0
12744 C 74.25 51.22 38.54 C.3 107 C4107 0
12745 C 75.22 50.21 38.63 C.3 107 C4107 0
12746 H 73.68 51.05 37.8 H 107 C4107 0
12747 H 75.81 50.27 37.89 H 107 C4107 0
12748 H 74.79 49.36 38.62 H 107 C4107 0
12749 C1 76.01 50.37 39.94 C.3 107 C4107 0
12750 O2 76.22 49.4 40.66 O.3 107 C4107 0
12751 O3 76.49 51.6 40.29 O.3 107 C4107 0
12752 C 74.94 52.58 38.37 C.3 107 C4107 0
12753 H 74.28 53.26 38.31 H 107 C4107 0
12754 H 75.5 52.75 39.11 H 107 C4107 0
12755 H 75.46 52.57 37.57 H 107 C4107 0
12756 C 71.18 51.8 41.51 C.3 107 C4107 0
12757 C 72.15 52.79 41.31 C.3 107 C4107 0
12758 H 70.61 52.05 42.23 H 107 C4107 0
12759 H 72.74 52.81 42.05 H 107 C4107 0
12760 H 71.73 53.64 41.22 H 107 C4107 0
12761 C1 72.95 52.48 40.03 C.3 107 C4107 0
12762 O2 73.15 53.37 39.2 O.3 107 C4107 0
12763 O3 73.42 51.23 39.81 O.3 107 C4107 0
12764 C 71.87 50.46 41.83 C.3 107 C4107 0
12765 H 71.21 49.79 41.97 H 107 C4107 0
12766 H 72.44 50.22 41.11 H 107 C4107 0
12767 H 72.39 50.56 42.62 H 107 C4107 0
12768 C 68.11 50.89 38.63 C.3 107 C4107 0
12769 C 69.08 49.93 38.93 C.3 107 C4107 0
12770 H 67.55 50.56 37.94 H 107 C4107 0
12771 H 69.67 49.83 38.19 H 107 C4107 0
12772 H 68.66 49.1 39.11 H 107 C4107 0
12773 C1 69.88 50.38 40.17 C.3 107 C4107 0
12774 O2 70.09 49.59 41.09 O.3 107 C4107 0
12775 O3 70.36 51.65 40.25 O.3 107 C4107 0
12776 C 68.8 52.18 38.15 C.3 107 C4107 0
12777 H 68.14 52.84 37.95 H 107 C4107 0
12778 H 69.37 52.51 38.84 H 107 C4107 0
12779 H 69.32 52 37.38 H 107 C4107 0
12780 C 65.04 52.11 41.39 C.3 107 C4107 0
12781 C 66.01 53.04 40.98 C.3 107 C4107 0
12782 H 64.48 52.52 42.04 H 107 C4107 0
12783 H 66.6 53.22 41.7 H 107 C4107 0
12784 H 65.59 53.84 40.71 H 107 C4107 0
12785 C1 66.81 52.46 39.8 C.3 107 C4107 0
12786 O2 67.02 53.14 38.8 O.3 107 C4107 0
12787 O3 67.29 51.18 39.86 O.3 107 C4107 0
12788 C 65.74 50.88 42 C.3 107 C4107 0
12789 H 65.08 50.26 42.28 H 107 C4107 0
12790 H 66.3 50.48 41.35 H 107 C4107 0
12791 H 66.25 51.15 42.75 H 107 C4107 0
12792 C 61.98 50.6 38.78 C.3 107 C4107 0
12793 C 62.95 49.72 39.29 C.3 107 C4107 0
12794 H 61.41 50.12 38.18 H 107 C4107 0
12795 H 63.54 49.46 38.59 H 107 C4107 0
12796 H 62.52 48.95 39.65 H 107 C4107 0
12797 C1 63.74 50.43 40.4 C.3 107 C4107 0
12798 O2 63.95 49.86 41.47 O.3 107 C4107 0
12799 O3 64.22 51.69 40.2 O.3 107 C4107 0
12800 C 62.67 51.75 38.03 C.3 107 C4107 0
12801 H 62.01 52.34 37.69 H 107 C4107 0
12802 H 63.23 52.22 38.63 H 107 C4107 0
12803 H 63.19 51.4 37.32 H 107 C4107 0
12804 C 58.91 52.39 41.2 C.3 107 C4107 0
12805 C 59.88 53.2 40.6 C.3 107 C4107 0
12806 H 58.34 52.93 41.75 H 107 C4107 0
12807 H 60.47 53.54 41.27 H 107 C4107 0
12808 H 59.46 53.93 40.16 H 107 C4107 0
12809 C1 60.68 52.38 39.58 C.3 107 C4107 0
12810 O2 60.88 52.83 38.45 O.3 107 C4107 0
12811 O3 61.15 51.15 39.92 O.3 107 C4107 0
12812 C 59.6 51.33 42.07 C.3 107 C4107 0
12813 H 58.94 50.78 42.48 H 107 C4107 0
12814 H 60.17 50.79 41.53 H 107 C4107 0
12815 H 60.12 51.75 42.75 H 107 C4107 0
12816 C 55.84 50.34 38.99 C.3 107 C4107 0
12817 C 56.81 49.6 39.68 C.3 107 C4107 0
12818 H 55.27 49.75 38.51 H 107 C4107 0
12819 H 57.4 49.19 39.06 H 107 C4107 0
12820 H 56.39 48.93 40.2 H 107 C4107 0
12821 C1 57.61 50.53 40.61 C.3 107 C4107 0
12822 O2 57.81 50.21 41.78 O.3 107 C4107 0
12823 O3 58.09 51.72 40.13 O.3 107 C4107 0
12824 C 56.53 51.3 38.01 C.3 107 C4107 0
12825 H 55.87 51.81 37.55 H 107 C4107 0
12826 H 57.1 51.89 38.49 H 107 C4107 0
12827 H 57.05 50.81 37.39 H 107 C4107 0
12828 C 52.77 52.63 40.96 C.3 107 C4107 0
12829 C 53.74 53.29 40.2 C.3 107 C4107 0
12830 H 52.21 53.27 41.38 H 107 C4107 0
12831 H 54.33 53.76 40.77 H 107 C4107 0
12832 H 53.32 53.9 39.61 H 107 C4107 0
12833 C1 54.54 52.25 39.38 C.3 107 C4107 0
12834 O2 54.75 52.44 38.18 O.3 107 C4107 0
12835 O3 55.02 51.13 39.98 O.3 107 C4107 0
12836 C 53.46 51.78 42.05 C.3 107 C4107 0
12837 H 52.81 51.33 42.56 H 107 C4107 0
12838 H 54.03 51.14 41.63 H 107 C4107 0
12839 H 53.98 52.34 42.61 H 107 C4107 0
12840 C 49.71 50.14 39.26 C.3 107 C4107 0
12841 C 50.68 49.56 40.09 C.3 107 C4107 0
12842 H 49.14 49.45 38.92 H 107 C4107 0
12843 H 51.27 49.03 39.57 H 107 C4107 0
12844 H 50.25 49.02 40.75 H 107 C4107 0
12845 C1 51.47 50.68 40.79 C.3 107 C4107 0
12846 O2 51.68 50.63 42 O.3 107 C4107 0
12847 O3 51.95 51.73 40.07 O.3 107 C4107 0
12848 C 50.4 50.86 38.09 C.3 107 C4107 0
12849 H 49.74 51.25 37.52 H 107 C4107 0
12850 H 50.96 51.54 38.43 H 107 C4107 0
12851 H 50.91 50.24 37.59 H 107 C4107 0
12852 C 46.64 52.8 40.68 C.3 107 C4107 0
12853 C 47.61 53.28 39.79 C.3 107 C4107 0
12854 H 46.07 53.52 40.94 H 107 C4107 0
12855 H 48.2 53.86 40.24 H 107 C4107 0
12856 H 47.19 53.74 39.08 H 107 C4107 0
12857 C1 48.41 52.09 39.22 C.3 107 C4107 0
12858 O2 48.61 52.01 38.01 O.3 107 C4107 0
12859 O3 48.88 51.12 40.05 O.3 107 C4107 0
12860 C 47.33 52.21 41.92 C.3 107 C4107 0
12861 H 46.67 51.89 42.52 H 107 C4107 0
12862 H 47.9 51.49 41.66 H 107 C4107 0
12863 H 47.85 52.88 42.34 H 107 C4107 0
12864 C 43.57 50 39.56 C.3 107 C4107 0
12865 C 44.54 49.62 40.5 C.3 107 C4107 0
12866 H 43.01 49.25 39.38 H 107 C4107 0
12867 H 45.13 48.99 40.11 H 107 C4107 0
12868 H 44.12 49.24 41.26 H 107 C4107 0
12869 C1 45.34 50.87 40.94 C.3 107 C4107 0
12870 O2 45.54 51.08 42.13 O.3 107 C4107 0
12871 O3 45.82 51.73 40 O.3 107 C4107 0
12872 C 44.26 50.45 38.26 C.3 107 C4107 0
12873 H 43.6 50.7 37.63 H 107 C4107 0
12874 H 44.83 51.19 38.44 H 107 C4107 0
12875 H 44.78 49.73 37.91 H 107 C4107 0
12876 C 40.5 52.91 40.36 C.3 107 C4107 0
12877 C 41.47 53.17 39.39 C.3 107 C4107 0
12878 H 39.94 53.66 40.46 H 107 C4107 0
12879 H 42.06 53.85 39.7 H 107 C4107 0
12880 H 41.05 53.47 38.59 H 107 C4107 0
12881 C1 42.27 51.89 39.09 C.3 107 C4107 0
12882 O2 42.48 51.55 37.93 O.3 107 C4107 0
12883 O3 42.75 51.13 40.12 O.3 107 C4107 0
12884 C 41.19 52.6 41.7 C.3 107 C4107 0
12885 H 40.54 52.42 42.36 H 107 C4107 0
12886 H 41.76 51.85 41.6 H 107 C4107 0
12887 H 41.71 53.35 41.97 H 107 C4107 0
12888 C 37.44 49.93 39.89 C.3 107 C4107 0
12889 C 38.41 49.77 40.89 C.3 107 C4107 0
12890 H 36.87 49.16 39.88 H 107 C4107 0
12891 H 39 49.06 40.65 H 107 C4107 0
12892 H 37.98 49.56 41.71 H 107 C4107 0
12893 C1 39.2 51.08 41.04 C.3 107 C4107 0
12894 O2 39.41 51.55 42.16 O.3 107 C4107 0
12895 O3 39.68 51.72 39.94 O.3 107 C4107 0
12896 C 38.13 50.08 38.52 C.3 107 C4107 0
12897 H 37.47 50.19 37.85 H 107 C4107 0
12898 H 38.69 50.84 38.54 H 107 C4107 0
12899 H 38.64 49.3 38.34 H 107 C4107 0
12900 C 34.37 52.94 40.03 C.3 107 C4107 0
12901 C 35.34 52.99 39.02 C.3 107 C4107 0
12902 H 33.8 53.7 39.96 H 107 C4107 0
12903 H 35.93 53.71 39.18 H 107 C4107 0
12904 H 34.91 53.1 38.18 H 107 C4107 0
12905 C1 36.14 51.67 39.01 C.3 107 C4107 0
12906 O2 36.34 51.08 37.95 O.3 107 C4107 0
12907 O3 36.61 51.16 40.18 O.3 107 C4107 0
12908 C 35.06 52.94 41.4 C.3 107 C4107 0
12909 H 34.4 52.91 42.09 H 107 C4107 0
12910 H 35.62 52.18 41.47 H 107 C4107 0
12911 H 35.58 53.73 41.5 H 107 C4107 0
12912 C 31.3 49.93 40.23 C.3 107 C4107 0
12913 C 32.27 50 41.23 C.3 107 C4107 0
12914 H 30.73 49.18 40.38 H 107 C4107 0
12915 H 32.86 49.25 41.15 H 107 C4107 0
12916 H 31.85 49.97 42.08 H 107 C4107 0
12917 C1 33.07 51.31 41.09 C.3 107 C4107 0
12918 O2 33.27 52.01 42.08 O.3 107 C4107 0
12919 O3 33.54 51.68 39.88 O.3 107 C4107 0
12920 C 31.99 49.78 38.86 C.3 107 C4107 0
12921 H 31.33 49.73 38.17 H 107 C4107 0
12922 H 32.56 50.53 38.7 H 107 C4107 0
12923 H 32.51 48.98 38.85 H 107 C4107 0
12924 C 28.23 52.9 39.7 C.3 107 C4107 0
12925 C 29.2 52.73 38.7 C.3 107 C4107 0
12926 H 27.67 53.63 39.46 H 107 C4107 0
12927 H 29.79 53.47 38.7 H 107 C4107 0
12928 H 28.78 52.65 37.86 H 107 C4107 0
12929 C1 30 51.44 38.99 C.3 107 C4107 0
12930 O2 30.21 50.63 38.08 O.3 107 C4107 0
12931 O3 30.48 51.2 40.24 O.3 107 C4107 0
12932 C 28.92 53.2 41.04 C.3 107 C4107 0
12933 H 28.27 53.32 41.71 H 107 C4107 0
12934 H 29.49 52.48 41.27 H 107 C4107 0
12935 H 29.44 54 40.96 H 107 C4107 0
12936 C 25.17 50.01 40.55 C.3 107 C4107 0
12937 C 26.14 50.29 41.52 C.3 107 C4107 0
12938 H 24.6 49.31 40.87 H 107 C4107 0
12939 H 26.73 49.55 41.6 H 107 C4107 0
12940 H 25.71 50.46 42.35 H 107 C4107 0
12941 C1 26.93 51.54 41.09 C.3 107 C4107 0
12942 O2 27.14 52.44 41.9 O.3 107 C4107 0
12943 O3 27.41 51.64 39.83 O.3 107 C4107 0
12944 C 25.86 49.56 39.25 C.3 107 C4107 0
12945 H 25.2 49.37 38.59 H 107 C4107 0
12946 H 26.42 50.25 38.94 H 107 C4107 0
12947 H 26.37 48.78 39.42 H 107 C4107 0
12948 C 22.1 52.79 39.38 C.3 107 C4107 0
12949 C 23.07 52.4 38.45 C.3 107 C4107 0
12950 H 21.53 53.45 38.99 H 107 C4107 0
12951 H 23.66 53.12 38.28 H 107 C4107 0
12952 H 22.64 52.14 37.64 H 107 C4107 0
12953 C1 23.87 51.21 39.01 C.3 107 C4107 0
12954 O2 24.07 50.22 38.31 O.3 107 C4107 0
12955 O3 24.34 51.24 40.28 O.3 107 C4107 0
12956 C 22.79 53.38 40.63 C.3 107 C4107 0
12957 H 22.13 53.65 41.26 H 107 C4107 0
12958 H 23.35 52.72 41.01 H 107 C4107 0
12959 H 23.31 54.14 40.37 H 107 C4107 0
12960 C 19.03 50.15 40.85 C.3 107 C4107 0
12961 C 20 50.65 41.73 C.3 107 C4107 0
12962 H 18.46 49.55 41.31 H 107 C4107 0
12963 H 20.59 49.94 41.98 H 107 C4107 0
12964 H 19.58 50.99 42.51 H 107 C4107 0
12965 C1 20.8 51.77 41.04 C.3 107 C4107 0
12966 O2 21 52.83 41.64 O.3 107 C4107 0
12967 O3 21.27 51.59 39.78 O.3 107 C4107 0
12968 C 19.72 49.43 39.68 C.3 107 C4107 0
12969 H 19.06 49.1 39.08 H 107 C4107 0
12970 H 20.29 50.04 39.22 H 107 C4107 0
12971 H 20.24 48.71 40.02 H 107 C4107 0
12972 C 15.96 52.61 39.1 C.3 107 C4107 0
12973 C 16.93 52.03 38.28 C.3 107 C4107 0
12974 H 15.4 53.17 38.58 H 107 C4107 0
12975 H 17.52 52.7 37.96 H 107 C4107 0
12976 H 16.51 51.6 37.54 H 107 C4107 0
12977 C1 17.73 50.99 39.09 C.3 107 C4107 0
12978 O2 17.94 49.87 38.62 O.3 107 C4107 0
12979 O3 18.21 51.3 40.32 O.3 107 C4107 0
12980 C 16.65 53.46 40.18 C.3 107 C4107 0
12981 H 16 53.86 40.74 H 107 C4107 0
12982 H 17.22 52.91 40.71 H 107 C4107 0
12983 H 17.17 54.14 39.77 H 107 C4107 0
12984 C 12.89 50.36 41.11 C.3 107 C4107 0
12985 C 13.87 51.04 41.87 C.3 107 C4107 0
12986 H 12.33 49.87 41.69 H 107 C4107 0
12987 H 14.45 50.41 42.26 H 107 C4107 0
12988 H 13.44 51.54 42.55 H 107 C4107 0
12989 C1 14.66 51.98 40.95 C.3 107 C4107 0
12990 O2 14.87 53.15 41.29 O.3 107 C4107 0
12991 O3 15.14 51.53 39.76 O.3 107 C4107 0
12992 C 13.59 49.4 40.13 C.3 107 C4107 0
12993 H 12.93 48.94 39.62 H 107 C4107 0
12994 H 14.15 49.89 39.55 H 107 C4107 0
12995 H 14.1 48.77 40.62 H 107 C4107 0
12996 C 9.83 52.38 38.86 C.3 107 C4107 0
12997 C 10.8 51.62 38.19 C.3 107 C4107 0
12998 H 9.26 52.8 38.23 H 107 C4107 0
12999 H 11.39 52.21 37.73 H 107 C4107 0
13000 H 10.37 51.04 37.57 H 107 C4107 0
13001 C1 11.59 50.79 39.21 C.3 107 C4107 0
13002 O2 11.8 49.59 38.99 O.3 107 C4107 0
13003 O3 12.07 51.37 40.34 O.3 107 C4107 0
13004 C 10.52 53.44 39.73 C.3 107 C4107 0
13005 H 9.86 53.95 40.19 H 107 C4107 0
13006 H 11.08 53.02 40.37 H 107 C4107 0
13007 H 11.04 54.02 39.18 H 107 C4107 0
13008 C 6.76 50.63 41.32 C.3 107 C4107 0
13009 C 7.73 51.45 41.91 C.3 107 C4107 0
13010 H 6.19 50.27 42 H 107 C4107 0
13011 H 8.32 50.92 42.43 H 107 C4107 0
13012 H 7.31 52.09 42.46 H 107 C4107 0
13013 C1 8.53 52.17 40.8 C.3 107 C4107 0
13014 O2 8.73 53.38 40.88 O.3 107 C4107 0
13015 O3 9 51.47 39.74 O.3 107 C4107 0
13016 C 7.45 49.47 40.57 C.3 107 C4107 0
13017 H 6.79 48.91 40.18 H 107 C4107 0
13018 H 8.02 49.82 39.9 H 107 C4107 0
13019 H 7.97 48.96 41.19 H 107 C4107 0
13020 H 3.17 51.66 39.35 H 108 C4108 0
13021 C 3.69 52.09 38.68 C.3 108 C4108 0
13022 C 4.66 51.21 38.19 C.3 108 C4108 0
13023 H 3.13 52.37 37.97 H 108 C4108 0
13024 H 5.25 51.68 37.62 H 108 C4108 0
13025 H 4.24 50.51 37.71 H 108 C4108 0
13026 C1 5.46 50.62 39.37 C.3 108 C4108 0
13027 O2 5.67 49.41 39.43 O.3 108 C4108 0
13028 O3 5.94 51.43 40.35 O.3 108 C4108 0
13029 C 4.38 53.33 39.3 C.3 108 C4108 0
13030 H 3.72 53.92 39.63 H 108 C4108 0
13031 H 4.95 53.05 40.01 H 108 C4108 0
13032 H 4.9 53.76 38.63 H 108 C4108 0
13033 C 92.65 52.18 50.17 C.3 109 C4109 0
13034 C 93.62 51.34 49.62 C.3 109 C4109 0
13035 H 92.09 52.51 49.48 H 109 C4109 0
13036 H 94.21 51.85 49.08 H 109 C4109 0
13037 H 93.2 50.67 49.09 H 109 C4109 0
13038 C1 94.42 50.66 50.75 C.3 109 C4109 0
13039 O2 94.63 49.45 50.72 O.3 109 C4109 0
13040 O3 94.9 51.4 51.78 O.3 109 C4109 0
13041 H5 95.42 50.85 52.36 H 109 C4109 0
13042 C 93.34 53.36 50.88 C.3 109 C4109 0
13043 H 92.68 53.94 51.25 H 109 C4109 0
13044 H 93.91 53.04 51.56 H 109 C4109 0
13045 H 93.86 53.85 50.24 H 109 C4109 0
13046 C 89.58 50.82 52.86 C.3 110 C4110 0
13047 C 90.55 51.72 53.32 C.3 110 C4110 0
13048 H 89.02 50.57 53.58 H 110 C4110 0
13049 H 91.15 51.27 53.92 H 110 C4110 0
13050 H 90.13 52.44 53.77 H 110 C4110 0
13051 C1 91.35 52.26 52.12 C.3 110 C4110 0
13052 O2 91.56 53.47 52.02 O.3 110 C4110 0
13053 O3 91.83 51.41 51.18 O.3 110 C4110 0
13054 C 90.28 49.56 52.3 C.3 110 C4110 0
13055 H 89.62 48.95 51.99 H 110 C4110 0
13056 H 90.84 49.81 51.58 H 110 C4110 0
13057 H 90.79 49.15 52.98 H 110 C4110 0
13058 C 86.52 51.88 50.04 C.3 110 C4110 0
13059 C 87.49 50.93 49.68 C.3 110 C4110 0
13060 H 85.95 52.04 49.29 H 110 C4110 0
13061 H 88.08 51.31 49.04 H 110 C4110 0
13062 H 87.06 50.17 49.31 H 110 C4110 0
13063 C1 88.28 50.52 50.94 C.3 110 C4110 0
13064 O2 88.49 49.33 51.17 O.3 110 C4110 0
13065 O3 88.76 51.47 51.78 O.3 110 C4110 0
13066 C 87.21 53.19 50.46 C.3 110 C4110 0
13067 H 86.55 53.83 50.7 H 110 C4110 0
13068 H 87.77 53.02 51.21 H 110 C4110 0
13069 H 87.73 53.52 49.74 H 110 C4110 0
13070 C 83.45 51.14 52.96 C.3 110 C4110 0
13071 C 84.42 52.11 53.21 C.3 110 C4110 0
13072 H 82.88 51.05 53.72 H 110 C4110 0
13073 H 85.01 51.81 53.89 H 110 C4110 0
13074 H 84 52.92 53.5 H 110 C4110 0
13075 C1 85.22 52.39 51.92 C.3 110 C4110 0
13076 O2 85.42 53.54 51.56 O.3 110 C4110 0
13077 O3 85.69 51.35 51.19 O.3 110 C4110 0
13078 C 84.14 49.79 52.69 C.3 110 C4110 0
13079 H 83.48 49.12 52.52 H 110 C4110 0
13080 H 84.71 49.87 51.93 H 110 C4110 0
13081 H 84.66 49.54 53.44 H 110 C4110 0
13082 C 80.38 51.55 49.97 C.3 110 C4110 0
13083 C 81.35 50.55 49.84 C.3 110 C4110 0
13084 H 79.82 51.55 49.21 H 110 C4110 0
13085 H 81.94 50.78 49.13 H 110 C4110 0
13086 H 80.93 49.72 49.64 H 110 C4110 0
13087 C1 82.15 50.42 51.15 C.3 110 C4110 0
13088 O2 82.36 49.31 51.64 O.3 110 C4110 0
13089 O3 82.63 51.54 51.76 O.3 110 C4110 0
13090 C 81.07 52.92 50.1 C.3 110 C4110 0
13091 H 80.41 53.6 50.2 H 110 C4110 0
13092 H 81.64 52.92 50.86 H 110 C4110 0
13093 H 81.59 53.09 49.32 H 110 C4110 0
13094 C 77.31 51.47 52.99 C.3 110 C4110 0
13095 C 78.28 52.48 53.02 C.3 110 C4110 0
13096 H 76.75 51.55 53.75 H 110 C4110 0
13097 H 78.88 52.33 53.75 H 110 C4110 0
13098 H 77.86 53.32 53.12 H 110 C4110 0
13099 C1 79.08 52.46 51.7 C.3 110 C4110 0
13100 O2 79.29 53.51 51.09 O.3 110 C4110 0
13101 O3 79.56 51.28 51.21 O.3 110 C4110 0
13102 C 78.01 50.09 53.02 C.3 110 C4110 0
13103 H 77.35 49.41 53 H 110 C4110 0
13104 H 78.57 50.01 52.26 H 110 C4110 0
13105 H 78.52 50.01 53.81 H 110 C4110 0
13106 C 74.25 51.22 49.98 C.3 110 C4110 0
13107 C 75.22 50.21 50.07 C.3 110 C4110 0
13108 H 73.68 51.05 49.24 H 110 C4110 0
13109 H 75.81 50.27 49.33 H 110 C4110 0
13110 H 74.79 49.36 50.06 H 110 C4110 0
13111 C1 76.01 50.37 51.38 C.3 110 C4110 0
13112 O2 76.22 49.4 52.1 O.3 110 C4110 0
13113 O3 76.49 51.6 51.73 O.3 110 C4110 0
13114 C 74.94 52.58 49.81 C.3 110 C4110 0
13115 H 74.28 53.26 49.75 H 110 C4110 0
13116 H 75.5 52.75 50.55 H 110 C4110 0
13117 H 75.46 52.57 49.01 H 110 C4110 0
13118 C 71.18 51.8 52.95 C.3 110 C4110 0
13119 C 72.15 52.79 52.75 C.3 110 C4110 0
13120 H 70.61 52.05 53.67 H 110 C4110 0
13121 H 72.74 52.81 53.49 H 110 C4110 0
13122 H 71.73 53.64 52.66 H 110 C4110 0
13123 C1 72.95 52.48 51.47 C.3 110 C4110 0
13124 O2 73.15 53.37 50.64 O.3 110 C4110 0
13125 O3 73.42 51.23 51.25 O.3 110 C4110 0
13126 C 71.87 50.46 53.27 C.3 110 C4110 0
13127 H 71.21 49.79 53.41 H 110 C4110 0
13128 H 72.44 50.22 52.55 H 110 C4110 0
13129 H 72.39 50.56 54.06 H 110 C4110 0
13130 C 68.11 50.89 50.07 C.3 110 C4110 0
13131 C 69.08 49.93 50.37 C.3 110 C4110 0
13132 H 67.55 50.56 49.38 H 110 C4110 0
13133 H 69.67 49.83 49.63 H 110 C4110 0
13134 H 68.66 49.1 50.55 H 110 C4110 0
13135 C1 69.88 50.38 51.61 C.3 110 C4110 0
13136 O2 70.09 49.59 52.53 O.3 110 C4110 0
13137 O3 70.36 51.65 51.69 O.3 110 C4110 0
13138 C 68.8 52.18 49.59 C.3 110 C4110 0
13139 H 68.14 52.84 49.39 H 110 C4110 0
13140 H 69.37 52.51 50.28 H 110 C4110 0
13141 H 69.32 52 48.82 H 110 C4110 0
13142 C 65.04 52.11 52.83 C.3 110 C4110 0
13143 C 66.01 53.04 52.42 C.3 110 C4110 0
13144 H 64.48 52.52 53.48 H 110 C4110 0
13145 H 66.6 53.22 53.14 H 110 C4110 0
13146 H 65.59 53.84 52.15 H 110 C4110 0
13147 C1 66.81 52.46 51.24 C.3 110 C4110 0
13148 O2 67.02 53.14 50.24 O.3 110 C4110 0
13149 O3 67.29 51.18 51.3 O.3 110 C4110 0
13150 C 65.74 50.88 53.44 C.3 110 C4110 0
13151 H 65.08 50.26 53.72 H 110 C4110 0
13152 H 66.3 50.48 52.79 H 110 C4110 0
13153 H 66.25 51.15 54.19 H 110 C4110 0
13154 C 61.98 50.6 50.22 C.3 110 C4110 0
13155 C 62.95 49.72 50.73 C.3 110 C4110 0
13156 H 61.41 50.12 49.62 H 110 C4110 0
13157 H 63.54 49.46 50.03 H 110 C4110 0
13158 H 62.52 48.95 51.09 H 110 C4110 0
13159 C1 63.74 50.43 51.84 C.3 110 C4110 0
13160 O2 63.95 49.86 52.91 O.3 110 C4110 0
13161 O3 64.22 51.69 51.64 O.3 110 C4110 0
13162 C 62.67 51.75 49.47 C.3 110 C4110 0
13163 H 62.01 52.34 49.13 H 110 C4110 0
13164 H 63.23 52.22 50.07 H 110 C4110 0
13165 H 63.19 51.4 48.76 H 110 C4110 0
13166 C 58.91 52.39 52.64 C.3 110 C4110 0
13167 C 59.88 53.2 52.04 C.3 110 C4110 0
13168 H 58.34 52.93 53.19 H 110 C4110 0
13169 H 60.47 53.54 52.71 H 110 C4110 0
13170 H 59.46 53.93 51.6 H 110 C4110 0
13171 C1 60.68 52.38 51.02 C.3 110 C4110 0
13172 O2 60.88 52.83 49.89 O.3 110 C4110 0
13173 O3 61.15 51.15 51.36 O.3 110 C4110 0
13174 C 59.6 51.33 53.51 C.3 110 C4110 0
13175 H 58.94 50.78 53.92 H 110 C4110 0
13176 H 60.17 50.79 52.97 H 110 C4110 0
13177 H 60.12 51.75 54.19 H 110 C4110 0
13178 C 55.84 50.34 50.43 C.3 110 C4110 0
13179 C 56.81 49.6 51.12 C.3 110 C4110 0
13180 H 55.27 49.75 49.95 H 110 C4110 0
13181 H 57.4 49.19 50.5 H 110 C4110 0
13182 H 56.39 48.93 51.64 H 110 C4110 0
13183 C1 57.61 50.53 52.05 C.3 110 C4110 0
13184 O2 57.81 50.21 53.22 O.3 110 C4110 0
13185 O3 58.09 51.72 51.57 O.3 110 C4110 0
13186 C 56.53 51.3 49.45 C.3 110 C4110 0
13187 H 55.87 51.81 48.99 H 110 C4110 0
13188 H 57.1 51.89 49.93 H 110 C4110 0
13189 H 57.05 50.81 48.83 H 110 C4110 0
13190 C 52.77 52.63 52.4 C.3 110 C4110 0
13191 C 53.74 53.29 51.64 C.3 110 C4110 0
13192 H 52.21 53.27 52.82 H 110 C4110 0
13193 H 54.33 53.76 52.21 H 110 C4110 0
13194 H 53.32 53.9 51.05 H 110 C4110 0
13195 C1 54.54 52.25 50.82 C.3 110 C4110 0
13196 O2 54.75 52.44 49.62 O.3 110 C4110 0
13197 O3 55.02 51.13 51.42 O.3 110 C4110 0
13198 C 53.46 51.78 53.49 C.3 110 C4110 0
13199 H 52.81 51.33 54 H 110 C4110 0
13200 H 54.03 51.14 53.07 H 110 C4110 0
13201 H 53.98 52.34 54.05 H 110 C4110 0
13202 C 49.71 50.14 50.7 C.3 110 C4110 0
13203 C 50.68 49.56 51.53 C.3 110 C4110 0
13204 H 49.14 49.45 50.36 H 110 C4110 0
13205 H 51.27 49.03 51.01 H 110 C4110 0
13206 H 50.25 49.02 52.19 H 110 C4110 0
13207 C1 51.47 50.68 52.23 C.3 110 C4110 0
13208 O2 51.68 50.63 53.44 O.3 110 C4110 0
13209 O3 51.95 51.73 51.51 O.3 110 C4110 0
13210 C 50.4 50.86 49.53 C.3 110 C4110 0
13211 H 49.74 51.25 48.96 H 110 C4110 0
13212 H 50.96 51.54 49.87 H 110 C4110 0
13213 H 50.91 50.24 49.03 H 110 C4110 0
13214 C 46.64 52.8 52.12 C.3 110 C4110 0
13215 C 47.61 53.28 51.23 C.3 110 C4110 0
13216 H 46.07 53.52 52.38 H 110 C4110 0
13217 H 48.2 53.86 51.68 H 110 C4110 0
13218 H 47.19 53.74 50.52 H 110 C4110 0
13219 C1 48.41 52.09 50.66 C.3 110 C4110 0
13220 O2 48.61 52.01 49.45 O.3 110 C4110 0
13221 O3 48.88 51.12 51.49 O.3 110 C4110 0
13222 C 47.33 52.21 53.36 C.3 110 C4110 0
13223 H 46.67 51.89 53.96 H 110 C4110 0
13224 H 47.9 51.49 53.1 H 110 C4110 0
13225 H 47.85 52.88 53.78 H 110 C4110 0
13226 C 43.57 50 51 C.3 110 C4110 0
13227 C 44.54 49.62 51.94 C.3 110 C4110 0
13228 H 43.01 49.25 50.82 H 110 C4110 0
13229 H 45.13 48.99 51.55 H 110 C4110 0
13230 H 44.12 49.24 52.7 H 110 C4110 0
13231 C1 45.34 50.87 52.38 C.3 110 C4110 0
13232 O2 45.54 51.08 53.57 O.3 110 C4110 0
13233 O3 45.82 51.73 51.44 O.3 110 C4110 0
13234 C 44.26 50.45 49.7 C.3 110 C4110 0
13235 H 43.6 50.7 49.07 H 110 C4110 0
13236 H 44.83 51.19 49.88 H 110 C4110 0
13237 H 44.78 49.73 49.35 H 110 C4110 0
13238 C 40.5 52.91 51.8 C.3 110 C4110 0
13239 C 41.47 53.17 50.83 C.3 110 C4110 0
13240 H 39.94 53.66 51.9 H 110 C4110 0
13241 H 42.06 53.85 51.14 H 110 C4110 0
13242 H 41.05 53.47 50.03 H 110 C4110 0
13243 C1 42.27 51.89 50.53 C.3 110 C4110 0
13244 O2 42.48 51.55 49.37 O.3 110 C4110 0
13245 O3 42.75 51.13 51.56 O.3 110 C4110 0
13246 C 41.19 52.6 53.14 C.3 110 C4110 0
13247 H 40.54 52.42 53.8 H 110 C4110 0
13248 H 41.76 51.85 53.04 H 110 C4110 0
13249 H 41.71 53.35 53.41 H 110 C4110 0
13250 C 37.44 49.93 51.33 C.3 110 C4110 0
13251 C 38.41 49.77 52.33 C.3 110 C4110 0
13252 H 36.87 49.16 51.32 H 110 C4110 0
13253 H 39 49.06 52.09 H 110 C4110 0
13254 H 37.98 49.56 53.15 H 110 C4110 0
13255 C1 39.2 51.08 52.48 C.3 110 C4110 0
13256 O2 39.41 51.55 53.6 O.3 110 C4110 0
13257 O3 39.68 51.72 51.38 O.3 110 C4110 0
13258 C 38.13 50.08 49.96 C.3 110 C4110 0
13259 H 37.47 50.19 49.29 H 110 C4110 0
13260 H 38.69 50.84 49.98 H 110 C4110 0
13261 H 38.64 49.3 49.78 H 110 C4110 0
13262 C 34.37 52.94 51.47 C.3 110 C4110 0
13263 C 35.34 52.99 50.46 C.3 110 C4110 0
13264 H 33.8 53.7 51.4 H 110 C4110 0
13265 H 35.93 53.71 50.62 H 110 C4110 0
13266 H 34.91 53.1 49.62 H 110 C4110 0
13267 C1 36.14 51.67 50.45 C.3 110 C4110 0
13268 O2 36.34 51.08 49.39 O.3 110 C4110 0
13269 O3 36.61 51.16 51.62 O.3 110 C4110 0
13270 C 35.06 52.94 52.84 C.3 110 C4110 0
13271 H 34.4 52.91 53.53 H 110 C4110 0
13272 H 35.62 52.18 52.91 H 110 C4110 0
13273 H 35.58 53.73 52.94 H 110 C4110 0
13274 C 31.3 49.93 51.67 C.3 110 C4110 0
13275 C 32.27 50 52.67 C.3 110 C4110 0
13276 H 30.73 49.18 51.82 H 110 C4110 0
13277 H 32.86 49.25 52.59 H 110 C4110 0
13278 H 31.85 49.97 53.52 H 110 C4110 0
13279 C1 33.07 51.31 52.53 C.3 110 C4110 0
13280 O2 33.27 52.01 53.52 O.3 110 C4110 0
13281 O3 33.54 51.68 51.32 O.3 110 C4110 0
13282 C 31.99 49.78 50.3 C.3 110 C4110 0
13283 H 31.33 49.73 49.61 H 110 C4110 0
13284 H 32.56 50.53 50.14 H 110 C4110 0
13285 H 32.51 48.98 50.29 H 110 C4110 0
13286 C 28.23 52.9 51.14 C.3 110 C4110 0
13287 C 29.2 52.73 50.14 C.3 110 C4110 0
13288 H 27.67 53.63 50.9 H 110 C4110 0
13289 H 29.79 53.47 50.14 H 110 C4110 0
13290 H 28.78 52.65 49.3 H 110 C4110 0
13291 C1 30 51.44 50.43 C.3 110 C4110 0
13292 O2 30.21 50.63 49.52 O.3 110 C4110 0
13293 O3 30.48 51.2 51.68 O.3 110 C4110 0
13294 C 28.92 53.2 52.48 C.3 110 C4110 0
13295 H 28.27 53.32 53.15 H 110 C4110 0
13296 H 29.49 52.48 52.71 H 110 C4110 0
13297 H 29.44 54 52.4 H 110 C4110 0
13298 C 25.17 50.01 51.99 C.3 110 C4110 0
13299 C 26.14 50.29 52.96 C.3 110 C4110 0
13300 H 24.6 49.31 52.31 H 110 C4110 0
13301 H 26.73 49.55 53.04 H 110 C4110 0
13302 H 25.71 50.46 53.79 H 110 C4110 0
13303 C1 26.93 51.54 52.53 C.3 110 C4110 0
13304 O2 27.14 52.44 53.34 O.3 110 C4110 0
13305 O3 27.41 51.64 51.27 O.3 110 C4110 0
13306 C 25.86 49.56 50.69 C.3 110 C4110 0
13307 H 25.2 49.37 50.03 H 110 C4110 0
13308 H 26.42 50.25 50.38 H 110 C4110 0
13309 H 26.37 48.78 50.86 H 110 C4110 0
13310 C 22.1 52.79 50.82 C.3 110 C4110 0
13311 C 23.07 52.4 49.89 C.3 110 C4110 0
13312 H 21.53 53.45 50.43 H 110 C4110 0
13313 H 23.66 53.12 49.72 H 110 C4110 0
13314 H 22.64 52.14 49.08 H 110 C4110 0
13315 C1 23.87 51.21 50.45 C.3 110 C4110 0
13316 O2 24.07 50.22 49.75 O.3 110 C4110 0
13317 O3 24.34 51.24 51.72 O.3 110 C4110 0
13318 C 22.79 53.38 52.07 C.3 110 C4110 0
13319 H 22.13 53.65 52.7 H 110 C4110 0
13320 H 23.35 52.72 52.45 H 110 C4110 0
13321 H 23.31 54.14 51.81 H 110 C4110 0
13322 C 19.03 50.15 52.29 C.3 110 C4110 0
13323 C 20 50.65 53.17 C.3 110 C4110 0
13324 H 18.46 49.55 52.75 H 110 C4110 0
13325 H 20.59 49.94 53.42 H 110 C4110 0
13326 H 19.58 50.99 53.95 H 110 C4110 0
13327 C1 20.8 51.77 52.48 C.3 110 C4110 0
13328 O2 21 52.83 53.08 O.3 110 C4110 0
13329 O3 21.27 51.59 51.22 O.3 110 C4110 0
13330 C 19.72 49.43 51.12 C.3 110 C4110 0
13331 H 19.06 49.1 50.52 H 110 C4110 0
13332 H 20.29 50.04 50.66 H 110 C4110 0
13333 H 20.24 48.71 51.46 H 110 C4110 0
13334 C 15.96 52.61 50.54 C.3 110 C4110 0
13335 C 16.93 52.03 49.72 C.3 110 C4110 0
13336 H 15.4 53.17 50.02 H 110 C4110 0
13337 H 17.52 52.7 49.4 H 110 C4110 0
13338 H 16.51 51.6 48.98 H 110 C4110 0
13339 C1 17.73 50.99 50.53 C.3 110 C4110 0
13340 O2 17.94 49.87 50.06 O.3 110 C4110 0
13341 O3 18.21 51.3 51.76 O.3 110 C4110 0
13342 C 16.65 53.46 51.62 C.3 110 C4110 0
13343 H 16 53.86 52.18 H 110 C4110 0
13344 H 17.22 52.91 52.15 H 110 C4110 0
13345 H 17.17 54.14 51.21 H 110 C4110 0
13346 C 12.89 50.36 52.55 C.3 110 C4110 0
13347 C 13.87 51.04 53.31 C.3 110 C4110 0
13348 H 12.33 49.87 53.13 H 110 C4110 0
13349 H 14.45 50.41 53.7 H 110 C4110 0
13350 H 13.44 51.54 53.99 H 110 C4110 0
13351 C1 14.66 51.98 52.39 C.3 110 C4110 0
13352 O2 14.87 53.15 52.73 O.3 110 C4110 0
13353 O3 15.14 51.53 51.2 O.3 110 C4110 0
13354 C 13.59 49.4 51.57 C.3 110 C4110 0
13355 H 12.93 48.94 51.06 H 110 C4110 0
13356 H 14.15 49.89 50.99 H 110 C4110 0
13357 H 14.1 48.77 52.06 H 110 C4110 0
13358 C 9.83 52.38 50.3 C.3 110 C4110 0
13359 C 10.8 51.62 49.63 C.3 110 C4110 0
13360 H 9.26 52.8 49.67 H 110 C4110 0
13361 H 11.39 52.21 49.17 H 110 C4110 0
13362 H 10.37 51.04 49.01 H 110 C4110 0
13363 C1 11.59 50.79 50.65 C.3 110 C4110 0
13364 O2 11.8 49.59 50.43 O.3 110 C4110 0
13365 O3 12.07 51.37 51.78 O.3 110 C4110 0
13366 C 10.52 53.44 51.17 C.3 110 C4110 0
13367 H 9.86 53.95 51.63 H 110 C4110 0
13368 H 11.08 53.02 51.81 H 110 C4110 0
13369 H 11.04 54.02 50.62 H 110 C4110 0
13370 C 6.76 50.63 52.76 C.3 110 C4110 0
13371 C 7.73 51.45 53.35 C.3 110 C4110 0
13372 H 6.19 50.27 53.44 H 110 C4110 0
13373 H 8.32 50.92 53.87 H 110 C4110 0
13374 H 7.31 52.09 53.9 H 110 C4110 0
13375 C1 8.53 52.17 52.24 C.3 110 C4110 0
13376 O2 8.73 53.38 52.32 O.3 110 C4110 0
13377 O3 9 51.47 51.18 O.3 110 C4110 0
13378 C 7.45 49.47 52.01 C.3 110 C4110 0
13379 H 6.79 48.91 51.62 H 110 C4110 0
13380 H 8.02 49.82 51.34 H 110 C4110 0
13381 H 7.97 48.96 52.63 H 110 C4110 0
13382 H 3.17 51.66 50.79 H 111 C4111 0
13383 C 3.69 52.09 50.12 C.3 111 C4111 0
13384 C 4.66 51.21 49.63 C.3 111 C4111 0
13385 H 3.13 52.37 49.41 H 111 C4111 0
13386 H 5.25 51.68 49.06 H 111 C4111 0
13387 H 4.24 50.51 49.15 H 111 C4111 0
13388 C1 5.46 50.62 50.81 C.3 111 C4111 0
13389 O2 5.67 49.41 50.87 O.3 111 C4111 0
13390 O3 5.94 51.43 51.79 O.3 111 C4111 0
13391 C 4.38 53.33 50.74 C.3 111 C4111 0
13392 H 3.72 53.92 51.07 H 111 C4111 0
13393 H 4.95 53.05 51.45 H 111 C4111 0
13394 H 4.9 53.76 50.07 H 111 C4111 0
13395 C 92.65 52.18 61.6 C.3 112 C4112 0
13396 C 93.62 51.34 61.05 C.3 112 C4112 0
13397 H 92.09 52.51 60.91 H 112 C4112 0
13398 H 94.21 51.85 60.51 H 112 C4112 0
13399 H 93.2 50.67 60.52 H 112 C4112 0
13400 C1 94.42 50.66 62.18 C.3 112 C4112 0
13401 O2 94.63 49.45 62.15 O.3 112 C4112 0
13402 O3 94.9 51.4 63.21 O.3 112 C4112 0
13403 H5 95.42 50.85 63.79 H 112 C4112 0
13404 C 93.34 53.36 62.31 C.3 112 C4112 0
13405 H 92.68 53.94 62.68 H 112 C4112 0
13406 H 93.91 53.04 62.99 H 112 C4112 0
13407 H 93.86 53.85 61.67 H 112 C4112 0
13408 C 89.58 50.82 64.29 C.3 113 C4113 0
13409 C 90.55 51.72 64.75 C.3 113 C4113 0
13410 H 89.02 50.57 65.01 H 113 C4113 0
13411 H 91.15 51.27 65.35 H 113 C4113 0
13412 H 90.13 52.44 65.2 H 113 C4113 0
13413 C1 91.35 52.26 63.55 C.3 113 C4113 0
13414 O2 91.56 53.47 63.45 O.3 113 C4113 0
13415 O3 91.83 51.41 62.61 O.3 113 C4113 0
13416 C 90.28 49.56 63.73 C.3 113 C4113 0
13417 H 89.62 48.95 63.42 H 113 C4113 0
13418 H 90.84 49.81 63.01 H 113 C4113 0
13419 H 90.79 49.15 64.41 H 113 C4113 0
13420 C 86.52 51.88 61.47 C.3 113 C4113 0
13421 C 87.49 50.93 61.11 C.3 113 C4113 0
13422 H 85.95 52.04 60.72 H 113 C4113 0
13423 H 88.08 51.31 60.47 H 113 C4113 0
13424 H 87.06 50.17 60.74 H 113 C4113 0
13425 C1 88.28 50.52 62.37 C.3 113 C4113 0
13426 O2 88.49 49.33 62.6 O.3 113 C4113 0
13427 O3 88.76 51.47 63.21 O.3 113 C4113 0
13428 C 87.21 53.19 61.89 C.3 113 C4113 0
13429 H 86.55 53.83 62.13 H 113 C4113 0
13430 H 87.77 53.02 62.64 H 113 C4113 0
13431 H 87.73 53.52 61.17 H 113 C4113 0
13432 C 83.45 51.14 64.39 C.3 113 C4113 0
13433 C 84.42 52.11 64.64 C.3 113 C4113 0
13434 H 82.88 51.05 65.15 H 113 C4113 0
13435 H 85.01 51.81 65.32 H 113 C4113 0
13436 H 84 52.92 64.93 H 113 C4113 0
13437 C1 85.22 52.39 63.35 C.3 113 C4113 0
13438 O2 85.42 53.54 62.99 O.3 113 C4113 0
13439 O3 85.69 51.35 62.62 O.3 113 C4113 0
13440 C 84.14 49.79 64.12 C.3 113 C4113 0
13441 H 83.48 49.12 63.95 H 113 C4113 0
13442 H 84.71 49.87 63.36 H 113 C4113 0
13443 H 84.66 49.54 64.87 H 113 C4113 0
13444 C 80.38 51.55 61.4 C.3 113 C4113 0
13445 C 81.35 50.55 61.27 C.3 113 C4113 0
13446 H 79.82 51.55 60.64 H 113 C4113 0
13447 H 81.94 50.78 60.56 H 113 C4113 0
13448 H 80.93 49.72 61.07 H 113 C4113 0
13449 C1 82.15 50.42 62.58 C.3 113 C4113 0
13450 O2 82.36 49.31 63.07 O.3 113 C4113 0
13451 O3 82.63 51.54 63.19 O.3 113 C4113 0
13452 C 81.07 52.92 61.53 C.3 113 C4113 0
13453 H 80.41 53.6 61.63 H 113 C4113 0
13454 H 81.64 52.92 62.29 H 113 C4113 0
13455 H 81.59 53.09 60.75 H 113 C4113 0
13456 C 77.31 51.47 64.42 C.3 113 C4113 0
13457 C 78.28 52.48 64.45 C.3 113 C4113 0
13458 H 76.75 51.55 65.18 H 113 C4113 0
13459 H 78.88 52.33 65.18 H 113 C4113 0
13460 H 77.86 53.32 64.55 H 113 C4113 0
13461 C1 79.08 52.46 63.13 C.3 113 C4113 0
13462 O2 79.29 53.51 62.52 O.3 113 C4113 0
13463 O3 79.56 51.28 62.64 O.3 113 C4113 0
13464 C 78.01 50.09 64.45 C.3 113 C4113 0
13465 H 77.35 49.41 64.43 H 113 C4113 0
13466 H 78.57 50.01 63.69 H 113 C4113 0
13467 H 78.52 50.01 65.24 H 113 C4113 0
13468 C 74.25 51.22 61.41 C.3 113 C4113 0
13469 C 75.22 50.21 61.5 C.3 113 C4113 0
13470 H 73.68 51.05 60.67 H 113 C4113 0
13471 H 75.81 50.27 60.76 H 113 C4113 0
13472 H 74.79 49.36 61.49 H 113 C4113 0
13473 C1 76.01 50.37 62.81 C.3 113 C4113 0
13474 O2 76.22 49.4 63.53 O.3 113 C4113 0
13475 O3 76.49 51.6 63.16 O.3 113 C4113 0
13476 C 74.94 52.58 61.24 C.3 113 C4113 0
13477 H 74.28 53.26 61.18 H 113 C4113 0
13478 H 75.5 52.75 61.98 H 113 C4113 0
13479 H 75.46 52.57 60.44 H 113 C4113 0
13480 C 71.18 51.8 64.38 C.3 113 C4113 0
13481 C 72.15 52.79 64.18 C.3 113 C4113 0
13482 H 70.61 52.05 65.1 H 113 C4113 0
13483 H 72.74 52.81 64.92 H 113 C4113 0
13484 H 71.73 53.64 64.09 H 113 C4113 0
13485 C1 72.95 52.48 62.9 C.3 113 C4113 0
13486 O2 73.15 53.37 62.07 O.3 113 C4113 0
13487 O3 73.42 51.23 62.68 O.3 113 C4113 0
13488 C 71.87 50.46 64.7 C.3 113 C4113 0
13489 H 71.21 49.79 64.84 H 113 C4113 0
13490 H 72.44 50.22 63.98 H 113 C4113 0
13491 H 72.39 50.56 65.49 H 113 C4113 0
13492 C 68.11 50.89 61.5 C.3 113 C4113 0
13493 C 69.08 49.93 61.8 C.3 113 C4113 0
13494 H 67.55 50.56 60.81 H 113 C4113 0
13495 H 69.67 49.83 61.06 H 113 C4113 0
13496 H 68.66 49.1 61.98 H 113 C4113 0
13497 C1 69.88 50.38 63.04 C.3 113 C4113 0
13498 O2 70.09 49.59 63.96 O.3 113 C4113 0
13499 O3 70.36 51.65 63.12 O.3 113 C4113 0
13500 C 68.8 52.18 61.02 C.3 113 C4113 0
13501 H 68.14 52.84 60.82 H 113 C4113 0
13502 H 69.37 52.51 61.71 H 113 C4113 0
13503 H 69.32 52 60.25 H 113 C4113 0
13504 C 65.04 52.11 64.26 C.3 113 C4113 0
13505 C 66.01 53.04 63.85 C.3 113 C4113 0
13506 H 64.48 52.52 64.91 H 113 C4113 0
13507 H 66.6 53.22 64.57 H 113 C4113 0
13508 H 65.59 53.84 63.58 H 113 C4113 0
13509 C1 66.81 52.46 62.67 C.3 113 C4113 0
13510 O2 67.02 53.14 61.67 O.3 113 C4113 0
13511 O3 67.29 51.18 62.73 O.3 113 C4113 0
13512 C 65.74 50.88 64.87 C.3 113 C4113 0
13513 H 65.08 50.26 65.15 H 113 C4113 0
13514 H 66.3 50.48 64.22 H 113 C4113 0
13515 H 66.25 51.15 65.62 H 113 C4113 0
13516 C 61.98 50.6 61.65 C.3 113 C4113 0
13517 C 62.95 49.72 62.16 C.3 113 C4113 0
13518 H 61.41 50.12 61.05 H 113 C4113 0
13519 H 63.54 49.46 61.46 H 113 C4113 0
13520 H 62.52 48.95 62.52 H 113 C4113 0
13521 C1 63.74 50.43 63.27 C.3 113 C4113 0
13522 O2 63.95 49.86 64.34 O.3 113 C4113 0
13523 O3 64.22 51.69 63.07 O.3 113 C4113 0
13524 C 62.67 51.75 60.9 C.3 113 C4113 0
13525 H 62.01 52.34 60.56 H 113 C4113 0
13526 H 63.23 52.22 61.5 H 113 C4113 0
13527 H 63.19 51.4 60.19 H 113 C4113 0
13528 C 58.91 52.39 64.07 C.3 113 C4113 0
13529 C 59.88 53.2 63.47 C.3 113 C4113 0
13530 H 58.34 52.93 64.62 H 113 C4113 0
13531 H 60.47 53.54 64.14 H 113 C4113 0
13532 H 59.46 53.93 63.03 H 113 C4113 0
13533 C1 60.68 52.38 62.45 C.3 113 C4113 0
13534 O2 60.88 52.83 61.32 O.3 113 C4113 0
13535 O3 61.15 51.15 62.79 O.3 113 C4113 0
13536 C 59.6 51.33 64.94 C.3 113 C4113 0
13537 H 58.94 50.78 65.35 H 113 C4113 0
13538 H 60.17 50.79 64.4 H 113 C4113 0
13539 H 60.12 51.75 65.62 H 113 C4113 0
13540 C 55.84 50.34 61.86 C.3 113 C4113 0
13541 C 56.81 49.6 62.55 C.3 113 C4113 0
13542 H 55.27 49.75 61.38 H 113 C4113 0
13543 H 57.4 49.19 61.93 H 113 C4113 0
13544 H 56.39 48.93 63.07 H 113 C4113 0
13545 C1 57.61 50.53 63.48 C.3 113 C4113 0
13546 O2 57.81 50.21 64.65 O.3 113 C4113 0
13547 O3 58.09 51.72 63 O.3 113 C4113 0
13548 C 56.53 51.3 60.88 C.3 113 C4113 0
13549 H 55.87 51.81 60.42 H 113 C4113 0
13550 H 57.1 51.89 61.36 H 113 C4113 0
13551 H 57.05 50.81 60.26 H 113 C4113 0
13552 C 52.77 52.63 63.83 C.3 113 C4113 0
13553 C 53.74 53.29 63.07 C.3 113 C4113 0
13554 H 52.21 53.27 64.25 H 113 C4113 0
13555 H 54.33 53.76 63.64 H 113 C4113 0
13556 H 53.32 53.9 62.48 H 113 C4113 0
13557 C1 54.54 52.25 62.25 C.3 113 C4113 0
13558 O2 54.75 52.44 61.05 O.3 113 C4113 0
13559 O3 55.02 51.13 62.85 O.3 113 C4113 0
13560 C 53.46 51.78 64.92 C.3 113 C4113 0
13561 H 52.81 51.33 65.43 H 113 C4113 0
13562 H 54.03 51.14 64.5 H 113 C4113 0
13563 H 53.98 52.34 65.48 H 113 C4113 0
13564 C 49.71 50.14 62.13 C.3 113 C4113 0
13565 C 50.68 49.56 62.96 C.3 113 C4113 0
13566 H 49.14 49.45 61.79 H 113 C4113 0
13567 H 51.27 49.03 62.44 H 113 C4113 0
13568 H 50.25 49.02 63.62 H 113 C4113 0
13569 C1 51.47 50.68 63.66 C.3 113 C4113 0
13570 O2 51.68 50.63 64.87 O.3 113 C4113 0
13571 O3 51.95 51.73 62.94 O.3 113 C4113 0
13572 C 50.4 50.86 60.96 C.3 113 C4113 0
13573 H 49.74 51.25 60.39 H 113 C4113 0
13574 H 50.96 51.54 61.3 H 113 C4113 0
13575 H 50.91 50.24 60.46 H 113 C4113 0
13576 C 46.64 52.8 63.55 C.3 113 C4113 0
13577 C 47.61 53.28 62.66 C.3 113 C4113 0
13578 H 46.07 53.52 63.81 H 113 C4113 0
13579 H 48.2 53.86 63.11 H 113 C4113 0
13580 H 47.19 53.74 61.95 H 113 C4113 0
13581 C1 48.41 52.09 62.09 C.3 113 C4113 0
13582 O2 48.61 52.01 60.88 O.3 113 C4113 0
13583 O3 48.88 51.12 62.92 O.3 113 C4113 0
13584 C 47.33 52.21 64.79 C.3 113 C4113 0
13585 H 46.67 51.89 65.39 H 113 C4113 0
13586 H 47.9 51.49 64.53 H 113 C4113 0
13587 H 47.85 52.88 65.21 H 113 C4113 0
13588 C 43.57 50 62.43 C.3 113 C4113 0
13589 C 44.54 49.62 63.37 C.3 113 C4113 0
13590 H 43.01 49.25 62.25 H 113 C4113 0
13591 H 45.13 48.99 62.98 H 113 C4113 0
13592 H 44.12 49.24 64.13 H 113 C4113 0
13593 C1 45.34 50.87 63.81 C.3 113 C4113 0
13594 O2 45.54 51.08 65 O.3 113 C4113 0
13595 O3 45.82 51.73 62.87 O.3 113 C4113 0
13596 C 44.26 50.45 61.13 C.3 113 C4113 0
13597 H 43.6 50.7 60.5 H 113 C4113 0
13598 H 44.83 51.19 61.31 H 113 C4113 0
13599 H 44.78 49.73 60.78 H 113 C4113 0
13600 C 40.5 52.91 63.23 C.3 113 C4113 0
13601 C 41.47 53.17 62.26 C.3 113 C4113 0
13602 H 39.94 53.66 63.33 H 113 C4113 0
13603 H 42.06 53.85 62.57 H 113 C4113 0
13604 H 41.05 53.47 61.46 H 113 C4113 0
13605 C1 42.27 51.89 61.96 C.3 113 C4113 0
13606 O2 42.48 51.55 60.8 O.3 113 C4113 0
13607 O3 42.75 51.13 62.99 O.3 113 C4113 0
13608 C 41.19 52.6 64.57 C.3 113 C4113 0
13609 H 40.54 52.42 65.23 H 113 C4113 0
13610 H 41.76 51.85 64.47 H 113 C4113 0
13611 H 41.71 53.35 64.84 H 113 C4113 0
13612 C 37.44 49.93 62.76 C.3 113 C4113 0
13613 C 38.41 49.77 63.76 C.3 113 C4113 0
13614 H 36.87 49.16 62.75 H 113 C4113 0
13615 H 39 49.06 63.52 H 113 C4113 0
13616 H 37.98 49.56 64.58 H 113 C4113 0
13617 C1 39.2 51.08 63.91 C.3 113 C4113 0
13618 O2 39.41 51.55 65.03 O.3 113 C4113 0
13619 O3 39.68 51.72 62.81 O.3 113 C4113 0
13620 C 38.13 50.08 61.39 C.3 113 C4113 0
13621 H 37.47 50.19 60.72 H 113 C4113 0
13622 H 38.69 50.84 61.41 H 113 C4113 0
13623 H 38.64 49.3 61.21 H 113 C4113 0
13624 C 34.37 52.94 62.9 C.3 113 C4113 0
13625 C 35.34 52.99 61.89 C.3 113 C4113 0
13626 H 33.8 53.7 62.83 H 113 C4113 0
13627 H 35.93 53.71 62.05 H 113 C4113 0
13628 H 34.91 53.1 61.05 H 113 C4113 0
13629 C1 36.14 51.67 61.88 C.3 113 C4113 0
13630 O2 36.34 51.08 60.82 O.3 113 C4113 0
13631 O3 36.61 51.16 63.05 O.3 113 C4113 0
13632 C 35.06 52.94 64.27 C.3 113 C4113 0
13633 H 34.4 52.91 64.96 H 113 C4113 0
13634 H 35.62 52.18 64.34 H 113 C4113 0
13635 H 35.58 53.73 64.37 H 113 C4113 0
13636 C 31.3 49.93 63.1 C.3 113 C4113 0
13637 C 32.27 50 64.1 C.3 113 C4113 0
13638 H 30.73 49.18 63.25 H 113 C4113 0
13639 H 32.86 49.25 64.02 H 113 C4113 0
13640 H 31.85 49.97 64.95 H 113 C4113 0
13641 C1 33.07 51.31 63.96 C.3 113 C4113 0
13642 O2 33.27 52.01 64.95 O.3 113 C4113 0
13643 O3 33.54 51.68 62.75 O.3 113 C4113 0
13644 C 31.99 49.78 61.73 C.3 113 C4113 0
13645 H 31.33 49.73 61.04 H 113 C4113 0
13646 H 32.56 50.53 61.57 H 113 C4113 0
13647 H 32.51 48.98 61.72 H 113 C4113 0
13648 C 28.23 52.9 62.57 C.3 113 C4113 0
13649 C 29.2 52.73 61.57 C.3 113 C4113 0
13650 H 27.67 53.63 62.33 H 113 C4113 0
13651 H 29.79 53.47 61.57 H 113 C4113 0
13652 H 28.78 52.65 60.73 H 113 C4113 0
13653 C1 30 51.44 61.86 C.3 113 C4113 0
13654 O2 30.21 50.63 60.95 O.3 113 C4113 0
13655 O3 30.48 51.2 63.11 O.3 113 C4113 0
13656 C 28.92 53.2 63.91 C.3 113 C4113 0
13657 H 28.27 53.32 64.58 H 113 C4113 0
13658 H 29.49 52.48 64.14 H 113 C4113 0
13659 H 29.44 54 63.83 H 113 C4113 0
13660 C 25.17 50.01 63.42 C.3 113 C4113 0
13661 C 26.14 50.29 64.39 C.3 113 C4113 0
13662 H 24.6 49.31 63.74 H 113 C4113 0
13663 H 26.73 49.55 64.47 H 113 C4113 0
13664 H 25.71 50.46 65.22 H 113 C4113 0
13665 C1 26.93 51.54 63.96 C.3 113 C4113 0
13666 O2 27.14 52.44 64.77 O.3 113 C4113 0
13667 O3 27.41 51.64 62.7 O.3 113 C4113 0
13668 C 25.86 49.56 62.12 C.3 113 C4113 0
13669 H 25.2 49.37 61.46 H 113 C4113 0
13670 H 26.42 50.25 61.81 H 113 C4113 0
13671 H 26.37 48.78 62.29 H 113 C4113 0
13672 C 22.1 52.79 62.25 C.3 113 C4113 0
13673 C 23.07 52.4 61.32 C.3 113 C4113 0
13674 H 21.53 53.45 61.86 H 113 C4113 0
13675 H 23.66 53.12 61.15 H 113 C4113 0
13676 H 22.64 52.14 60.51 H 113 C4113 0
13677 C1 23.87 51.21 61.88 C.3 113 C4113 0
13678 O2 24.07 50.22 61.18 O.3 113 C4113 0
13679 O3 24.34 51.24 63.15 O.3 113 C4113 0
13680 C 22.79 53.38 63.5 C.3 113 C4113 0
13681 H 22.13 53.65 64.13 H 113 C4113 0
13682 H 23.35 52.72 63.88 H 113 C4113 0
13683 H 23.31 54.14 63.24 H 113 C4113 0
13684 C 19.03 50.15 63.72 C.3 113 C4113 0
13685 C 20 50.65 64.6 C.3 113 C4113 0
13686 H 18.46 49.55 64.18 H 113 C4113 0
13687 H 20.59 49.94 64.85 H 113 C4113 0
13688 H 19.58 50.99 65.38 H 113 C4113 0
13689 C1 20.8 51.77 63.91 C.3 113 C4113 0
13690 O2 21 52.83 64.51 O.3 113 C4113 0
13691 O3 21.27 51.59 62.65 O.3 113 C4113 0
13692 C 19.72 49.43 62.55 C.3 113 C4113 0
13693 H 19.06 49.1 61.95 H 113 C4113 0
13694 H 20.29 50.04 62.09 H 113 C4113 0
13695 H 20.24 48.71 62.89 H 113 C4113 0
13696 C 15.96 52.61 61.97 C.3 113 C4113 0
13697 C 16.93 52.03 61.15 C.3 113 C4113 0
13698 H 15.4 53.17 61.45 H 113 C4113 0
13699 H 17.52 52.7 60.83 H 113 C4113 0
13700 H 16.51 51.6 60.41 H 113 C4113 0
13701 C1 17.73 50.99 61.96 C.3 113 C4113 0
13702 O2 17.94 49.87 61.49 O.3 113 C4113 0
13703 O3 18.21 51.3 63.19 O.3 113 C4113 0
13704 C 16.65 53.46 63.05 C.3 113 C4113 0
13705 H 16 53.86 63.61 H 113 C4113 0
13706 H 17.22 52.91 63.58 H 113 C4113 0
13707 H 17.17 54.14 62.64 H 113 C4113 0
13708 C 12.89 50.36 63.98 C.3 113 C4113 0
13709 C 13.87 51.04 64.74 C.3 113 C4113 0
13710 H 12.33 49.87 64.56 H 113 C4113 0
13711 H 14.45 50.41 65.13 H 113 C4113 0
13712 H 13.44 51.54 65.42 H 113 C4113 0
13713 C1 14.66 51.98 63.82 C.3 113 C4113 0
13714 O2 14.87 53.15 64.16 O.3 113 C4113 0
13715 O3 15.14 51.53 62.63 O.3 113 C4113 0
13716 C 13.59 49.4 63 C.3 113 C4113 0
13717 H 12.93 48.94 62.49 H 113 C4113 0
13718 H 14.15 49.89 62.42 H 113 C4113 0
13719 H 14.1 48.77 63.49 H 113 C4113 0
13720 C 9.83 52.38 61.73 C.3 113 C4113 0
13721 C 10.8 51.62 61.06 C.3 113 C4113 0
13722 H 9.26 52.8 61.1 H 113 C4113 0
13723 H 11.39 52.21 60.6 H 113 C4113 0
13724 H 10.37 51.04 60.44 H 113 C4113 0
13725 C1 11.59 50.79 62.08 C.3 113 C4113 0
13726 O2 11.8 49.59 61.86 O.3 113 C4113 0
13727 O3 12.07 51.37 63.21 O.3 113 C4113 0
13728 C 10.52 53.44 62.6 C.3 113 C4113 0
13729 H 9.86 53.95 63.06 H 113 C4113 0
13730 H 11.08 53.02 63.24 H 113 C4113 0
13731 H 11.04 54.02 62.05 H 113 C4113 0
13732 C 6.76 50.63 64.19 C.3 113 C4113 0
13733 C 7.73 51.45 64.78 C.3 113 C4113 0
13734 H 6.19 50.27 64.87 H 113 C4113 0
13735 H 8.32 50.92 65.3 H 113 C4113 0
13736 H 7.31 52.09 65.33 H 113 C4113 0
13737 C1 8.53 52.17 63.67 C.3 113 C4113 0
13738 O2 8.73 53.38 63.75 O.3 113 C4113 0
13739 O3 9 51.47 62.61 O.3 113 C4113 0
13740 C 7.45 49.47 63.44 C.3 113 C4113 0
13741 H 6.79 48.91 63.05 H 113 C4113 0
13742 H 8.02 49.82 62.77 H 113 C4113 0
13743 H 7.97 48.96 64.06 H 113 C4113 0
13744 H 3.17 51.66 62.22 H 114 C4114 0
13745 C 3.69 52.09 61.55 C.3 114 C4114 0
13746 C 4.66 51.21 61.06 C.3 114 C4114 0
13747 H 3.13 52.37 60.84 H 114 C4114 0
13748 H 5.25 51.68 60.49 H 114 C4114 0
13749 H 4.24 50.51 60.58 H 114 C4114 0
13750 C1 5.46 50.62 62.24 C.3 114 C4114 0
13751 O2 5.67 49.41 62.3 O.3 114 C4114 0
13752 O3 5.94 51.43 63.22 O.3 114 C4114 0
13753 C 4.38 53.33 62.17 C.3 114 C4114 0
13754 H 3.72 53.92 62.5 H 114 C4114 0
13755 H 4.95 53.05 62.88 H 114 C4114 0
13756 H 4.9 53.76 61.5 H 114 C4114 0
13757 C 92.65 52.18 73.03 C.3 115 C4115 0
13758 C 93.62 51.34 72.48 C.3 115 C4115 0
13759 H 92.09 52.51 72.34 H 115 C4115 0
13760 H 94.21 51.85 71.94 H 115 C4115 0
13761 H 93.2 50.67 71.95 H 115 C4115 0
13762 C1 94.42 50.66 73.61 C.3 115 C4115 0
13763 O2 94.63 49.45 73.58 O.3 115 C4115 0
13764 O3 94.9 51.4 74.64 O.3 115 C4115 0
13765 H5 95.42 50.85 75.22 H 115 C4115 0
13766 C 93.34 53.36 73.74 C.3 115 C4115 0
13767 H 92.68 53.94 74.11 H 115 C4115 0
13768 H 93.91 53.04 74.42 H 115 C4115 0
13769 H 93.86 53.85 73.1 H 115 C4115 0
13770 C 89.58 50.82 75.72 C.3 116 C4116 0
13771 C 90.55 51.72 76.18 C.3 116 C4116 0
13772 H 89.02 50.57 76.44 H 116 C4116 0
13773 H 91.15 51.27 76.78 H 116 C4116 0
13774 H 90.13 52.44 76.63 H 116 C4116 0
13775 C1 91.35 52.26 74.98 C.3 116 C4116 0
13776 O2 91.56 53.47 74.88 O.3 116 C4116 0
13777 O3 91.83 51.41 74.04 O.3 116 C4116 0
13778 C 90.28 49.56 75.16 C.3 116 C4116 0
13779 H 89.62 48.95 74.85 H 116 C4116 0
13780 H 90.84 49.81 74.44 H 116 C4116 0
13781 H 90.79 49.15 75.84 H 116 C4116 0
13782 C 86.52 51.88 72.9 C.3 116 C4116 0
13783 C 87.49 50.93 72.54 C.3 116 C4116 0
13784 H 85.95 52.04 72.15 H 116 C4116 0
13785 H 88.08 51.31 71.9 H 116 C4116 0
13786 H 87.06 50.17 72.17 H 116 C4116 0
13787 C1 88.28 50.52 73.8 C.3 116 C4116 0
13788 O2 88.49 49.33 74.03 O.3 116 C4116 0
13789 O3 88.76 51.47 74.64 O.3 116 C4116 0
13790 C 87.21 53.19 73.32 C.3 116 C4116 0
13791 H 86.55 53.83 73.56 H 116 C4116 0
13792 H 87.77 53.02 74.07 H 116 C4116 0
13793 H 87.73 53.52 72.6 H 116 C4116 0
13794 C 83.45 51.14 75.82 C.3 116 C4116 0
13795 C 84.42 52.11 76.07 C.3 116 C4116 0
13796 H 82.88 51.05 76.58 H 116 C4116 0
13797 H 85.01 51.81 76.75 H 116 C4116 0
13798 H 84 52.92 76.36 H 116 C4116 0
13799 C1 85.22 52.39 74.78 C.3 116 C4116 0
13800 O2 85.42 53.54 74.42 O.3 116 C4116 0
13801 O3 85.69 51.35 74.05 O.3 116 C4116 0
13802 C 84.14 49.79 75.55 C.3 116 C4116 0
13803 H 83.48 49.12 75.38 H 116 C4116 0
13804 H 84.71 49.87 74.79 H 116 C4116 0
13805 H 84.66 49.54 76.3 H 116 C4116 0
13806 C 80.38 51.55 72.83 C.3 116 C4116 0
13807 C 81.35 50.55 72.7 C.3 116 C4116 0
13808 H 79.82 51.55 72.07 H 116 C4116 0
13809 H 81.94 50.78 71.99 H 116 C4116 0
13810 H 80.93 49.72 72.5 H 116 C4116 0
13811 C1 82.15 50.42 74.01 C.3 116 C4116 0
13812 O2 82.36 49.31 74.5 O.3 116 C4116 0
13813 O3 82.63 51.54 74.62 O.3 116 C4116 0
13814 C 81.07 52.92 72.96 C.3 116 C4116 0
13815 H 80.41 53.6 73.06 H 116 C4116 0
13816 H 81.64 52.92 73.72 H 116 C4116 0
13817 H 81.59 53.09 72.18 H 116 C4116 0
13818 C 77.31 51.47 75.85 C.3 116 C4116 0
13819 C 78.28 52.48 75.88 C.3 116 C4116 0
13820 H 76.75 51.55 76.61 H 116 C4116 0
13821 H 78.88 52.33 76.61 H 116 C4116 0
13822 H 77.86 53.32 75.98 H 116 C4116 0
13823 C1 79.08 52.46 74.56 C.3 116 C4116 0
13824 O2 79.29 53.51 73.95 O.3 116 C4116 0
13825 O3 79.56 51.28 74.07 O.3 116 C4116 0
13826 C 78.01 50.09 75.88 C.3 116 C4116 0
13827 H 77.35 49.41 75.86 H 116 C4116 0
13828 H 78.57 50.01 75.12 H 116 C4116 0
13829 H 78.52 50.01 76.67 H 116 C4116 0
13830 C 74.25 51.22 72.84 C.3 116 C4116 0
13831 C 75.22 50.21 72.93 C.3 116 C4116 0
13832 H 73.68 51.05 72.1 H 116 C4116 0
13833 H 75.81 50.27 72.19 H 116 C4116 0
13834 H 74.79 49.36 72.92 H 116 C4116 0
13835 C1 76.01 50.37 74.24 C.3 116 C4116 0
13836 O2 76.22 49.4 74.96 O.3 116 C4116 0
13837 O3 76.49 51.6 74.59 O.3 116 C4116 0
13838 C 74.94 52.58 72.67 C.3 116 C4116 0
13839 H 74.28 53.26 72.61 H 116 C4116 0
13840 H 75.5 52.75 73.41 H 116 C4116 0
13841 H 75.46 52.57 71.87 H 116 C4116 0
13842 C 71.18 51.8 75.81 C.3 116 C4116 0
13843 C 72.15 52.79 75.61 C.3 116 C4116 0
13844 H 70.61 52.05 76.53 H 116 C4116 0
13845 H 72.74 52.81 76.35 H 116 C4116 0
13846 H 71.73 53.64 75.52 H 116 C4116 0
13847 C1 72.95 52.48 74.33 C.3 116 C4116 0
13848 O2 73.15 53.37 73.5 O.3 116 C4116 0
13849 O3 73.42 51.23 74.11 O.3 116 C4116 0
13850 C 71.87 50.46 76.13 C.3 116 C4116 0
13851 H 71.21 49.79 76.27 H 116 C4116 0
13852 H 72.44 50.22 75.41 H 116 C4116 0
13853 H 72.39 50.56 76.92 H 116 C4116 0
13854 C 68.11 50.89 72.93 C.3 116 C4116 0
13855 C 69.08 49.93 73.23 C.3 116 C4116 0
13856 H 67.55 50.56 72.24 H 116 C4116 0
13857 H 69.67 49.83 72.49 H 116 C4116 0
13858 H 68.66 49.1 73.41 H 116 C4116 0
13859 C1 69.88 50.38 74.47 C.3 116 C4116 0
13860 O2 70.09 49.59 75.39 O.3 116 C4116 0
13861 O3 70.36 51.65 74.55 O.3 116 C4116 0
13862 C 68.8 52.18 72.45 C.3 116 C4116 0
13863 H 68.14 52.84 72.25 H 116 C4116 0
13864 H 69.37 52.51 73.14 H 116 C4116 0
13865 H 69.32 52 71.68 H 116 C4116 0
13866 C 65.04 52.11 75.69 C.3 116 C4116 0
13867 C 66.01 53.04 75.28 C.3 116 C4116 0
13868 H 64.48 52.52 76.34 H 116 C4116 0
13869 H 66.6 53.22 76 H 116 C4116 0
13870 H 65.59 53.84 75.01 H 116 C4116 0
13871 C1 66.81 52.46 74.1 C.3 116 C4116 0
13872 O2 67.02 53.14 73.1 O.3 116 C4116 0
13873 O3 67.29 51.18 74.16 O.3 116 C4116 0
13874 C 65.74 50.88 76.3 C.3 116 C4116 0
13875 H 65.08 50.26 76.58 H 116 C4116 0
13876 H 66.3 50.48 75.65 H 116 C4116 0
13877 H 66.25 51.15 77.05 H 116 C4116 0
13878 C 61.98 50.6 73.08 C.3 116 C4116 0
13879 C 62.95 49.72 73.59 C.3 116 C4116 0
13880 H 61.41 50.12 72.48 H 116 C4116 0
13881 H 63.54 49.46 72.89 H 116 C4116 0
13882 H 62.52 48.95 73.95 H 116 C4116 0
13883 C1 63.74 50.43 74.7 C.3 116 C4116 0
13884 O2 63.95 49.86 75.77 O.3 116 C4116 0
13885 O3 64.22 51.69 74.5 O.3 116 C4116 0
13886 C 62.67 51.75 72.33 C.3 116 C4116 0
13887 H 62.01 52.34 71.99 H 116 C4116 0
13888 H 63.23 52.22 72.93 H 116 C4116 0
13889 H 63.19 51.4 71.62 H 116 C4116 0
13890 C 58.91 52.39 75.5 C.3 116 C4116 0
13891 C 59.88 53.2 74.9 C.3 116 C4116 0
13892 H 58.34 52.93 76.05 H 116 C4116 0
13893 H 60.47 53.54 75.57 H 116 C4116 0
13894 H 59.46 53.93 74.46 H 116 C4116 0
13895 C1 60.68 52.38 73.88 C.3 116 C4116 0
13896 O2 60.88 52.83 72.75 O.3 116 C4116 0
13897 O3 61.15 51.15 74.22 O.3 116 C4116 0
13898 C 59.6 51.33 76.37 C.3 116 C4116 0
13899 H 58.94 50.78 76.78 H 116 C4116 0
13900 H 60.17 50.79 75.83 H 116 C4116 0
13901 H 60.12 51.75 77.05 H 116 C4116 0
13902 C 55.84 50.34 73.29 C.3 116 C4116 0
13903 C 56.81 49.6 73.98 C.3 116 C4116 0
13904 H 55.27 49.75 72.81 H 116 C4116 0
13905 H 57.4 49.19 73.36 H 116 C4116 0
13906 H 56.39 48.93 74.5 H 116 C4116 0
13907 C1 57.61 50.53 74.91 C.3 116 C4116 0
13908 O2 57.81 50.21 76.08 O.3 116 C4116 0
13909 O3 58.09 51.72 74.43 O.3 116 C4116 0
13910 C 56.53 51.3 72.31 C.3 116 C4116 0
13911 H 55.87 51.81 71.85 H 116 C4116 0
13912 H 57.1 51.89 72.79 H 116 C4116 0
13913 H 57.05 50.81 71.69 H 116 C4116 0
13914 C 52.77 52.63 75.26 C.3 116 C4116 0
13915 C 53.74 53.29 74.5 C.3 116 C4116 0
13916 H 52.21 53.27 75.68 H 116 C4116 0
13917 H 54.33 53.76 75.07 H 116 C4116 0
13918 H 53.32 53.9 73.91 H 116 C4116 0
13919 C1 54.54 52.25 73.68 C.3 116 C4116 0
13920 O2 54.75 52.44 72.48 O.3 116 C4116 0
13921 O3 55.02 51.13 74.28 O.3 116 C4116 0
13922 C 53.46 51.78 76.35 C.3 116 C4116 0
13923 H 52.81 51.33 76.86 H 116 C4116 0
13924 H 54.03 51.14 75.93 H 116 C4116 0
13925 H 53.98 52.34 76.91 H 116 C4116 0
13926 C 49.71 50.14 73.56 C.3 116 C4116 0
13927 C 50.68 49.56 74.39 C.3 116 C4116 0
13928 H 49.14 49.45 73.22 H 116 C4116 0
13929 H 51.27 49.03 73.87 H 116 C4116 0
13930 H 50.25 49.02 75.05 H 116 C4116 0
13931 C1 51.47 50.68 75.09 C.3 116 C4116 0
13932 O2 51.68 50.63 76.3 O.3 116 C4116 0
13933 O3 51.95 51.73 74.37 O.3 116 C4116 0
13934 C 50.4 50.86 72.39 C.3 116 C4116 0
13935 H 49.74 51.25 71.82 H 116 C4116 0
13936 H 50.96 51.54 72.73 H 116 C4116 0
13937 H 50.91 50.24 71.89 H 116 C4116 0
13938 C 46.64 52.8 74.98 C.3 116 C4116 0
13939 C 47.61 53.28 74.09 C.3 116 C4116 0
13940 H 46.07 53.52 75.24 H 116 C4116 0
13941 H 48.2 53.86 74.54 H 116 C4116 0
13942 H 47.19 53.74 73.38 H 116 C4116 0
13943 C1 48.41 52.09 73.52 C.3 116 C4116 0
13944 O2 48.61 52.01 72.31 O.3 116 C4116 0
13945 O3 48.88 51.12 74.35 O.3 116 C4116 0
13946 C 47.33 52.21 76.22 C.3 116 C4116 0
13947 H 46.67 51.89 76.82 H 116 C4116 0
13948 H 47.9 51.49 75.96 H 116 C4116 0
13949 H 47.85 52.88 76.64 H 116 C4116 0
13950 C 43.57 50 73.86 C.3 116 C4116 0
13951 C 44.54 49.62 74.8 C.3 116 C4116 0
13952 H 43.01 49.25 73.68 H 116 C4116 0
13953 H 45.13 48.99 74.41 H 116 C4116 0
13954 H 44.12 49.24 75.56 H 116 C4116 0
13955 C1 45.34 50.87 75.24 C.3 116 C4116 0
13956 O2 45.54 51.08 76.43 O.3 116 C4116 0
13957 O3 45.82 51.73 74.3 O.3 116 C4116 0
13958 C 44.26 50.45 72.56 C.3 116 C4116 0
13959 H 43.6 50.7 71.93 H 116 C4116 0
13960 H 44.83 51.19 72.74 H 116 C4116 0
13961 H 44.78 49.73 72.21 H 116 C4116 0
13962 C 40.5 52.91 74.66 C.3 116 C4116 0
13963 C 41.47 53.17 73.69 C.3 116 C4116 0
13964 H 39.94 53.66 74.76 H 116 C4116 0
13965 H 42.06 53.85 74 H 116 C4116 0
13966 H 41.05 53.47 72.89 H 116 C4116 0
13967 C1 42.27 51.89 73.39 C.3 116 C4116 0
13968 O2 42.48 51.55 72.23 O.3 116 C4116 0
13969 O3 42.75 51.13 74.42 O.3 116 C4116 0
13970 C 41.19 52.6 76 C.3 116 C4116 0
13971 H 40.54 52.42 76.66 H 116 C4116 0
13972 H 41.76 51.85 75.9 H 116 C4116 0
13973 H 41.71 53.35 76.27 H 116 C4116 0
13974 C 37.44 49.93 74.19 C.3 116 C4116 0
13975 C 38.41 49.77 75.19 C.3 116 C4116 0
13976 H 36.87 49.16 74.18 H 116 C4116 0
13977 H 39 49.06 74.95 H 116 C4116 0
13978 H 37.98 49.56 76.01 H 116 C4116 0
13979 C1 39.2 51.08 75.34 C.3 116 C4116 0
13980 O2 39.41 51.55 76.46 O.3 116 C4116 0
13981 O3 39.68 51.72 74.24 O.3 116 C4116 0
13982 C 38.13 50.08 72.82 C.3 116 C4116 0
13983 H 37.47 50.19 72.15 H 116 C4116 0
13984 H 38.69 50.84 72.84 H 116 C4116 0
13985 H 38.64 49.3 72.64 H 116 C4116 0
13986 C 34.37 52.94 74.33 C.3 116 C4116 0
13987 C 35.34 52.99 73.32 C.3 116 C4116 0
13988 H 33.8 53.7 74.26 H 116 C4116 0
13989 H 35.93 53.71 73.48 H 116 C4116 0
13990 H 34.91 53.1 72.48 H 116 C4116 0
13991 C1 36.14 51.67 73.31 C.3 116 C4116 0
13992 O2 36.34 51.08 72.25 O.3 116 C4116 0
13993 O3 36.61 51.16 74.48 O.3 116 C4116 0
13994 C 35.06 52.94 75.7 C.3 116 C4116 0
13995 H 34.4 52.91 76.39 H 116 C4116 0
13996 H 35.62 52.18 75.77 H 116 C4116 0
13997 H 35.58 53.73 75.8 H 116 C4116 0
13998 C 31.3 49.93 74.53 C.3 116 C4116 0
13999 C 32.27 50 75.53 C.3 116 C4116 0
14000 H 30.73 49.18 74.68 H 116 C4116 0
14001 H 32.86 49.25 75.45 H 116 C4116 0
14002 H 31.85 49.97 76.38 H 116 C4116 0
14003 C1 33.07 51.31 75.39 C.3 116 C4116 0
14004 O2 33.27 52.01 76.38 O.3 116 C4116 0
14005 O3 33.54 51.68 74.18 O.3 116 C4116 0
14006 C 31.99 49.78 73.16 C.3 116 C4116 0
14007 H 31.33 49.73 72.47 H 116 C4116 0
14008 H 32.56 50.53 73 H 116 C4116 0
14009 H 32.51 48.98 73.15 H 116 C4116 0
14010 C 28.23 52.9 74 C.3 116 C4116 0
14011 C 29.2 52.73 73 C.3 116 C4116 0
14012 H 27.67 53.63 73.76 H 116 C4116 0
14013 H 29.79 53.47 73 H 116 C4116 0
14014 H 28.78 52.65 72.16 H 116 C4116 0
14015 C1 30 51.44 73.29 C.3 116 C4116 0
14016 O2 30.21 50.63 72.38 O.3 116 C4116 0
14017 O3 30.48 51.2 74.54 O.3 116 C4116 0
14018 C 28.92 53.2 75.34 C.3 116 C4116 0
14019 H 28.27 53.32 76.01 H 116 C4116 0
14020 H 29.49 52.48 75.57 H 116 C4116 0
14021 H 29.44 54 75.26 H 116 C4116 0
14022 C 25.17 50.01 74.85 C.3 116 C4116 0
14023 C 26.14 50.29 75.82 C.3 116 C4116 0
14024 H 24.6 49.31 75.17 H 116 C4116 0
14025 H 26.73 49.55 75.9 H 116 C4116 0
14026 H 25.71 50.46 76.65 H 116 C4116 0
14027 C1 26.93 51.54 75.39 C.3 116 C4116 0
14028 O2 27.14 52.44 76.2 O.3 116 C4116 0
14029 O3 27.41 51.64 74.13 O.3 116 C4116 0
14030 C 25.86 49.56 73.55 C.3 116 C4116 0
14031 H 25.2 49.37 72.89 H 116 C4116 0
14032 H 26.42 50.25 73.24 H 116 C4116 0
14033 H 26.37 48.78 73.72 H 116 C4116 0
14034 C 22.1 52.79 73.68 C.3 116 C4116 0
14035 C 23.07 52.4 72.75 C.3 116 C4116 0
14036 H 21.53 53.45 73.29 H 116 C4116 0
14037 H 23.66 53.12 72.58 H 116 C4116 0
14038 H 22.64 52.14 71.94 H 116 C4116 0
14039 C1 23.87 51.21 73.31 C.3 116 C4116 0
14040 O2 24.07 50.22 72.61 O.3 116 C4116 0
14041 O3 24.34 51.24 74.58 O.3 116 C4116 0
14042 C 22.79 53.38 74.93 C.3 116 C4116 0
14043 H 22.13 53.65 75.56 H 116 C4116 0
14044 H 23.35 52.72 75.31 H 116 C4116 0
14045 H 23.31 54.14 74.67 H 116 C4116 0
14046 C 19.03 50.15 75.15 C.3 116 C4116 0
14047 C 20 50.65 76.03 C.3 116 C4116 0
14048 H 18.46 49.55 75.61 H 116 C4116 0
14049 H 20.59 49.94 76.28 H 116 C4116 0
14050 H 19.58 50.99 76.81 H 116 C4116 0
14051 C1 20.8 51.77 75.34 C.3 116 C4116 0
14052 O2 21 52.83 75.94 O.3 116 C4116 0
14053 O3 21.27 51.59 74.08 O.3 116 C4116 0
14054 C 19.72 49.43 73.98 C.3 116 C4116 0
14055 H 19.06 49.1 73.38 H 116 C4116 0
14056 H 20.29 50.04 73.52 H 116 C4116 0
14057 H 20.24 48.71 74.32 H 116 C4116 0
14058 C 15.96 52.61 73.4 C.3 116 C4116 0
14059 C 16.93 52.03 72.58 C.3 116 C4116 0
14060 H 15.4 53.17 72.88 H 116 C4116 0
14061 H 17.52 52.7 72.26 H 116 C4116 0
14062 H 16.51 51.6 71.84 H 116 C4116 0
14063 C1 17.73 50.99 73.39 C.3 116 C4116 0
14064 O2 17.94 49.87 72.92 O.3 116 C4116 0
14065 O3 18.21 51.3 74.62 O.3 116 C4116 0
14066 C 16.65 53.46 74.48 C.3 116 C4116 0
14067 H 16 53.86 75.04 H 116 C4116 0
14068 H 17.22 52.91 75.01 H 116 C4116 0
14069 H 17.17 54.14 74.07 H 116 C4116 0
14070 C 12.89 50.36 75.41 C.3 116 C4116 0
14071 C 13.87 51.04 76.17 C.3 116 C4116 0
14072 H 12.33 49.87 75.99 H 116 C4116 0
14073 H 14.45 50.41 76.56 H 116 C4116 0
14074 H 13.44 51.54 76.85 H 116 C4116 0
14075 C1 14.66 51.98 75.25 C.3 116 C4116 0
14076 O2 14.87 53.15 75.59 O.3 116 C4116 0
14077 O3 15.14 51.53 74.06 O.3 116 C4116 0
14078 C 13.59 49.4 74.43 C.3 116 C4116 0
14079 H 12.93 48.94 73.92 H 116 C4116 0
14080 H 14.15 49.89 73.85 H 116 C4116 0
14081 H 14.1 48.77 74.92 H 116 C4116 0
14082 C 9.83 52.38 73.16 C.3 116 C4116 0
14083 C 10.8 51.62 72.49 C.3 116 C4116 0
14084 H 9.26 52.8 72.53 H 116 C4116 0
14085 H 11.39 52.21 72.03 H 116 C4116 0
14086 H 10.37 51.04 71.87 H 116 C4116 0
14087 C1 11.59 50.79 73.51 C.3 116 C4116 0
14088 O2 11.8 49.59 73.29 O.3 116 C4116 0
14089 O3 12.07 51.37 74.64 O.3 116 C4116 0
14090 C 10.52 53.44 74.03 C.3 116 C4116 0
14091 H 9.86 53.95 74.49 H 116 C4116 0
14092 H 11.08 53.02 74.67 H 116 C4116 0
14093 H 11.04 54.02 73.48 H 116 C4116 0
14094 C 6.76 50.63 75.62 C.3 116 C4116 0
14095 C 7.73 51.45 76.21 C.3 116 C4116 0
14096 H 6.19 50.27 76.3 H 116 C4116 0
14097 H 8.32 50.92 76.73 H 116 C4116 0
14098 H 7.31 52.09 76.76 H 116 C4116 0
14099 C1 8.53 52.17 75.1 C.3 116 C4116 0
14100 O2 8.73 53.38 75.18 O.3 116 C4116 0
14101 O3 9 51.47 74.04 O.3 116 C4116 0
14102 C 7.45 49.47 74.87 C.3 116 C4116 0
14103 H 6.79 48.91 74.48 H 116 C4116 0
14104 H 8.02 49.82 74.2 H 116 C4116 0
14105 H 7.97 48.96 75.49 H 116 C4116 0
14106 H 3.17 51.66 73.65 H 117 C4117 0
14107 C 3.69 52.09 72.98 C.3 117 C4117 0
14108 C 4.66 51.21 72.49 C.3 117 C4117 0
14109 H 3.13 52.37 72.27 H 117 C4117 0
14110 H 5.25 51.68 71.92 H 117 C4117 0
14111 H 4.24 50.51 72.01 H 117 C4117 0
14112 C1 5.46 50.62 73.67 C.3 117 C4117 0
14113 O2 5.67 49.41 73.73 O.3 117 C4117 0
14114 O3 5.94 51.43 74.65 O.3 117 C4117 0
14115 C 4.38 53.33 73.6 C.3 117 C4117 0
14116 H 3.72 53.92 73.93 H 117 C4117 0
14117 H 4.95 53.05 74.31 H 117 C4117 0
14118 H 4.9 53.76 72.93 H 117 C4117 0
14119 C 92.65 52.18 84.46 C.3 118 C4118 0
14120 C 93.62 51.34 83.91 C.3 118 C4118 0
14121 H 92.09 52.51 83.77 H 118 C4118 0
14122 H 94.21 51.85 83.37 H 118 C4118 0
14123 H 93.2 50.67 83.38 H 118 C4118 0
14124 C1 94.42 50.66 85.04 C.3 118 C4118 0
14125 O2 94.63 49.45 85.01 O.3 118 C4118 0
14126 O3 94.9 51.4 86.07 O.3 118 C4118 0
14127 H5 95.42 50.85 86.65 H 118 C4118 0
14128 C 93.34 53.36 85.17 C.3 118 C4118 0
14129 H 92.68 53.94 85.54 H 118 C4118 0
14130 H 93.91 53.04 85.85 H 118 C4118 0
14131 H 93.86 53.85 84.53 H 118 C4118 0
14132 C 89.58 50.82 87.15 C.3 119 C4119 0
14133 C 90.55 51.72 87.61 C.3 119 C4119 0
14134 H 89.02 50.57 87.87 H 119 C4119 0
14135 H 91.15 51.27 88.21 H 119 C4119 0
14136 H 90.13 52.44 88.06 H 119 C4119 0
14137 C1 91.35 52.26 86.41 C.3 119 C4119 0
14138 O2 91.56 53.47 86.31 O.3 119 C4119 0
14139 O3 91.83 51.41 85.47 O.3 119 C4119 0
14140 C 90.28 49.56 86.59 C.3 119 C4119 0
14141 H 89.62 48.95 86.28 H 119 C4119 0
14142 H 90.84 49.81 85.87 H 119 C4119 0
14143 H 90.79 49.15 87.27 H 119 C4119 0
14144 C 86.52 51.88 84.33 C.3 119 C4119 0
14145 C 87.49 50.93 83.97 C.3 119 C4119 0
14146 H 85.95 52.04 83.58 H 119 C4119 0
14147 H 88.08 51.31 83.33 H 119 C4119 0
14148 H 87.06 50.17 83.6 H 119 C4119 0
14149 C1 88.28 50.52 85.23 C.3 119 C4119 0
14150 O2 88.49 49.33 85.46 O.3 119 C4119 0
14151 O3 88.76 51.47 86.07 O.3 119 C4119 0
14152 C 87.21 53.19 84.75 C.3 119 C4119 0
14153 H 86.55 53.83 84.99 H 119 C4119 0
14154 H 87.77 53.02 85.5 H 119 C4119 0
14155 H 87.73 53.52 84.03 H 119 C4119 0
14156 C 83.45 51.14 87.25 C.3 119 C4119 0
14157 C 84.42 52.11 87.5 C.3 119 C4119 0
14158 H 82.88 51.05 88.01 H 119 C4119 0
14159 H 85.01 51.81 88.18 H 119 C4119 0
14160 H 84 52.92 87.79 H 119 C4119 0
14161 C1 85.22 52.39 86.21 C.3 119 C4119 0
14162 O2 85.42 53.54 85.85 O.3 119 C4119 0
14163 O3 85.69 51.35 85.48 O.3 119 C4119 0
14164 C 84.14 49.79 86.98 C.3 119 C4119 0
14165 H 83.48 49.12 86.81 H 119 C4119 0
14166 H 84.71 49.87 86.22 H 119 C4119 0
14167 H 84.66 49.54 87.73 H 119 C4119 0
14168 C 80.38 51.55 84.26 C.3 119 C4119 0
14169 C 81.35 50.55 84.13 C.3 119 C4119 0
14170 H 79.82 51.55 83.5 H 119 C4119 0
14171 H 81.94 50.78 83.42 H 119 C4119 0
14172 H 80.93 49.72 83.93 H 119 C4119 0
14173 C1 82.15 50.42 85.44 C.3 119 C4119 0
14174 O2 82.36 49.31 85.93 O.3 119 C4119 0
14175 O3 82.63 51.54 86.05 O.3 119 C4119 0
14176 C 81.07 52.92 84.39 C.3 119 C4119 0
14177 H 80.41 53.6 84.49 H 119 C4119 0
14178 H 81.64 52.92 85.15 H 119 C4119 0
14179 H 81.59 53.09 83.61 H 119 C4119 0
14180 C 77.31 51.47 87.28 C.3 119 C4119 0
14181 C 78.28 52.48 87.31 C.3 119 C4119 0
14182 H 76.75 51.55 88.04 H 119 C4119 0
14183 H 78.88 52.33 88.04 H 119 C4119 0
14184 H 77.86 53.32 87.41 H 119 C4119 0
14185 C1 79.08 52.46 85.99 C.3 119 C4119 0
14186 O2 79.29 53.51 85.38 O.3 119 C4119 0
14187 O3 79.56 51.28 85.5 O.3 119 C4119 0
14188 C 78.01 50.09 87.31 C.3 119 C4119 0
14189 H 77.35 49.41 87.29 H 119 C4119 0
14190 H 78.57 50.01 86.55 H 119 C4119 0
14191 H 78.52 50.01 88.1 H 119 C4119 0
14192 C 74.25 51.22 84.27 C.3 119 C4119 0
14193 C 75.22 50.21 84.36 C.3 119 C4119 0
14194 H 73.68 51.05 83.53 H 119 C4119 0
14195 H 75.81 50.27 83.62 H 119 C4119 0
14196 H 74.79 49.36 84.35 H 119 C4119 0
14197 C1 76.01 50.37 85.67 C.3 119 C4119 0
14198 O2 76.22 49.4 86.39 O.3 119 C4119 0
14199 O3 76.49 51.6 86.02 O.3 119 C4119 0
14200 C 74.94 52.58 84.1 C.3 119 C4119 0
14201 H 74.28 53.26 84.04 H 119 C4119 0
14202 H 75.5 52.75 84.84 H 119 C4119 0
14203 H 75.46 52.57 83.3 H 119 C4119 0
14204 C 71.18 51.8 87.24 C.3 119 C4119 0
14205 C 72.15 52.79 87.04 C.3 119 C4119 0
14206 H 70.61 52.05 87.96 H 119 C4119 0
14207 H 72.74 52.81 87.78 H 119 C4119 0
14208 H 71.73 53.64 86.95 H 119 C4119 0
14209 C1 72.95 52.48 85.76 C.3 119 C4119 0
14210 O2 73.15 53.37 84.93 O.3 119 C4119 0
14211 O3 73.42 51.23 85.54 O.3 119 C4119 0
14212 C 71.87 50.46 87.56 C.3 119 C4119 0
14213 H 71.21 49.79 87.7 H 119 C4119 0
14214 H 72.44 50.22 86.84 H 119 C4119 0
14215 H 72.39 50.56 88.35 H 119 C4119 0
14216 C 68.11 50.89 84.36 C.3 119 C4119 0
14217 C 69.08 49.93 84.66 C.3 119 C4119 0
14218 H 67.55 50.56 83.67 H 119 C4119 0
14219 H 69.67 49.83 83.92 H 119 C4119 0
14220 H 68.66 49.1 84.84 H 119 C4119 0
14221 C1 69.88 50.38 85.9 C.3 119 C4119 0
14222 O2 70.09 49.59 86.82 O.3 119 C4119 0
14223 O3 70.36 51.65 85.98 O.3 119 C4119 0
14224 C 68.8 52.18 83.88 C.3 119 C4119 0
14225 H 68.14 52.84 83.68 H 119 C4119 0
14226 H 69.37 52.51 84.57 H 119 C4119 0
14227 H 69.32 52 83.11 H 119 C4119 0
14228 C 65.04 52.11 87.12 C.3 119 C4119 0
14229 C 66.01 53.04 86.71 C.3 119 C4119 0
14230 H 64.48 52.52 87.77 H 119 C4119 0
14231 H 66.6 53.22 87.43 H 119 C4119 0
14232 H 65.59 53.84 86.44 H 119 C4119 0
14233 C1 66.81 52.46 85.53 C.3 119 C4119 0
14234 O2 67.02 53.14 84.53 O.3 119 C4119 0
14235 O3 67.29 51.18 85.59 O.3 119 C4119 0
14236 C 65.74 50.88 87.73 C.3 119 C4119 0
14237 H 65.08 50.26 88.01 H 119 C4119 0
14238 H 66.3 50.48 87.08 H 119 C4119 0
14239 H 66.25 51.15 88.48 H 119 C4119 0
14240 C 61.98 50.6 84.51 C.3 119 C4119 0
14241 C 62.95 49.72 85.02 C.3 119 C4119 0
14242 H 61.41 50.12 83.91 H 119 C4119 0
14243 H 63.54 49.46 84.32 H 119 C4119 0
14244 H 62.52 48.95 85.38 H 119 C4119 0
14245 C1 63.74 50.43 86.13 C.3 119 C4119 0
14246 O2 63.95 49.86 87.2 O.3 119 C4119 0
14247 O3 64.22 51.69 85.93 O.3 119 C4119 0
14248 C 62.67 51.75 83.76 C.3 119 C4119 0
14249 H 62.01 52.34 83.42 H 119 C4119 0
14250 H 63.23 52.22 84.36 H 119 C4119 0
14251 H 63.19 51.4 83.05 H 119 C4119 0
14252 C 58.91 52.39 86.93 C.3 119 C4119 0
14253 C 59.88 53.2 86.33 C.3 119 C4119 0
14254 H 58.34 52.93 87.48 H 119 C4119 0
14255 H 60.47 53.54 87 H 119 C4119 0
14256 H 59.46 53.93 85.89 H 119 C4119 0
14257 C1 60.68 52.38 85.31 C.3 119 C4119 0
14258 O2 60.88 52.83 84.18 O.3 119 C4119 0
14259 O3 61.15 51.15 85.65 O.3 119 C4119 0
14260 C 59.6 51.33 87.8 C.3 119 C4119 0
14261 H 58.94 50.78 88.21 H 119 C4119 0
14262 H 60.17 50.79 87.26 H 119 C4119 0
14263 H 60.12 51.75 88.48 H 119 C4119 0
14264 C 55.84 50.34 84.72 C.3 119 C4119 0
14265 C 56.81 49.6 85.41 C.3 119 C4119 0
14266 H 55.27 49.75 84.24 H 119 C4119 0
14267 H 57.4 49.19 84.79 H 119 C4119 0
14268 H 56.39 48.93 85.93 H 119 C4119 0
14269 C1 57.61 50.53 86.34 C.3 119 C4119 0
14270 O2 57.81 50.21 87.51 O.3 119 C4119 0
14271 O3 58.09 51.72 85.86 O.3 119 C4119 0
14272 C 56.53 51.3 83.74 C.3 119 C4119 0
14273 H 55.87 51.81 83.28 H 119 C4119 0
14274 H 57.1 51.89 84.22 H 119 C4119 0
14275 H 57.05 50.81 83.12 H 119 C4119 0
14276 C 52.77 52.63 86.69 C.3 119 C4119 0
14277 C 53.74 53.29 85.93 C.3 119 C4119 0
14278 H 52.21 53.27 87.11 H 119 C4119 0
14279 H 54.33 53.76 86.5 H 119 C4119 0
14280 H 53.32 53.9 85.34 H 119 C4119 0
14281 C1 54.54 52.25 85.11 C.3 119 C4119 0
14282 O2 54.75 52.44 83.91 O.3 119 C4119 0
14283 O3 55.02 51.13 85.71 O.3 119 C4119 0
14284 C 53.46 51.78 87.78 C.3 119 C4119 0
14285 H 52.81 51.33 88.29 H 119 C4119 0
14286 H 54.03 51.14 87.36 H 119 C4119 0
14287 H 53.98 52.34 88.34 H 119 C4119 0
14288 C 49.71 50.14 84.99 C.3 119 C4119 0
14289 C 50.68 49.56 85.82 C.3 119 C4119 0
14290 H 49.14 49.45 84.65 H 119 C4119 0
14291 H 51.27 49.03 85.3 H 119 C4119 0
14292 H 50.25 49.02 86.48 H 119 C4119 0
14293 C1 51.47 50.68 86.52 C.3 119 C4119 0
14294 O2 51.68 50.63 87.73 O.3 119 C4119 0
14295 O3 51.95 51.73 85.8 O.3 119 C4119 0
14296 C 50.4 50.86 83.82 C.3 119 C4119 0
14297 H 49.74 51.25 83.25 H 119 C4119 0
14298 H 50.96 51.54 84.16 H 119 C4119 0
14299 H 50.91 50.24 83.32 H 119 C4119 0
14300 C 46.64 52.8 86.41 C.3 119 C4119 0
14301 C 47.61 53.28 85.52 C.3 119 C4119 0
14302 H 46.07 53.52 86.67 H 119 C4119 0
14303 H 48.2 53.86 85.97 H 119 C4119 0
14304 H 47.19 53.74 84.81 H 119 C4119 0
14305 C1 48.41 52.09 84.95 C.3 119 C4119 0
14306 O2 48.61 52.01 83.74 O.3 119 C4119 0
14307 O3 48.88 51.12 85.78 O.3 119 C4119 0
14308 C 47.33 52.21 87.65 C.3 119 C4119 0
14309 H 46.67 51.89 88.25 H 119 C4119 0
14310 H 47.9 51.49 87.39 H 119 C4119 0
14311 H 47.85 52.88 88.07 H 119 C4119 0
14312 C 43.57 50 85.29 C.3 119 C4119 0
14313 C 44.54 49.62 86.23 C.3 119 C4119 0
14314 H 43.01 49.25 85.11 H 119 C4119 0
14315 H 45.13 48.99 85.84 H 119 C4119 0
14316 H 44.12 49.24 86.99 H 119 C4119 0
14317 C1 45.34 50.87 86.67 C.3 119 C4119 0
14318 O2 45.54 51.08 87.86 O.3 119 C4119 0
14319 O3 45.82 51.73 85.73 O.3 119 C4119 0
14320 C 44.26 50.45 83.99 C.3 119 C4119 0
14321 H 43.6 50.7 83.36 H 119 C4119 0
14322 H 44.83 51.19 84.17 H 119 C4119 0
14323 H 44.78 49.73 83.64 H 119 C4119 0
14324 C 40.5 52.91 86.09 C.3 119 C4119 0
14325 C 41.47 53.17 85.12 C.3 119 C4119 0
14326 H 39.94 53.66 86.19 H 119 C4119 0
14327 H 42.06 53.85 85.43 H 119 C4119 0
14328 H 41.05 53.47 84.32 H 119 C4119 0
14329 C1 42.27 51.89 84.82 C.3 119 C4119 0
14330 O2 42.48 51.55 83.66 O.3 119 C4119 0
14331 O3 42.75 51.13 85.85 O.3 119 C4119 0
14332 C 41.19 52.6 87.43 C.3 119 C4119 0
14333 H 40.54 52.42 88.09 H 119 C4119 0
14334 H 41.76 51.85 87.33 H 119 C4119 0
14335 H 41.71 53.35 87.7 H 119 C4119 0
14336 C 37.44 49.93 85.62 C.3 119 C4119 0
14337 C 38.41 49.77 86.62 C.3 119 C4119 0
14338 H 36.87 49.16 85.61 H 119 C4119 0
14339 H 39 49.06 86.38 H 119 C4119 0
14340 H 37.98 49.56 87.44 H 119 C4119 0
14341 C1 39.2 51.08 86.77 C.3 119 C4119 0
14342 O2 39.41 51.55 87.89 O.3 119 C4119 0
14343 O3 39.68 51.72 85.67 O.3 119 C4119 0
14344 C 38.13 50.08 84.25 C.3 119 C4119 0
14345 H 37.47 50.19 83.58 H 119 C4119 0
14346 H 38.69 50.84 84.27 H 119 C4119 0
14347 H 38.64 49.3 84.07 H 119 C4119 0
14348 C 34.37 52.94 85.76 C.3 119 C4119 0
14349 C 35.34 52.99 84.75 C.3 119 C4119 0
14350 H 33.8 53.7 85.69 H 119 C4119 0
14351 H 35.93 53.71 84.91 H 119 C4119 0
14352 H 34.91 53.1 83.91 H 119 C4119 0
14353 C1 36.14 51.67 84.74 C.3 119 C4119 0
14354 O2 36.34 51.08 83.68 O.3 119 C4119 0
14355 O3 36.61 51.16 85.91 O.3 119 C4119 0
14356 C 35.06 52.94 87.13 C.3 119 C4119 0
14357 H 34.4 52.91 87.82 H 119 C4119 0
14358 H 35.62 52.18 87.2 H 119 C4119 0
14359 H 35.58 53.73 87.23 H 119 C4119 0
14360 C 31.3 49.93 85.96 C.3 119 C4119 0
14361 C 32.27 50 86.96 C.3 119 C4119 0
14362 H 30.73 49.18 86.11 H 119 C4119 0
14363 H 32.86 49.25 86.88 H 119 C4119 0
14364 H 31.85 49.97 87.81 H 119 C4119 0
14365 C1 33.07 51.31 86.82 C.3 119 C4119 0
14366 O2 33.27 52.01 87.81 O.3 119 C4119 0
14367 O3 33.54 51.68 85.61 O.3 119 C4119 0
14368 C 31.99 49.78 84.59 C.3 119 C4119 0
14369 H 31.33 49.73 83.9 H 119 C4119 0
14370 H 32.56 50.53 84.43 H 119 C4119 0
14371 H 32.51 48.98 84.58 H 119 C4119 0
14372 C 28.23 52.9 85.43 C.3 119 C4119 0
14373 C 29.2 52.73 84.43 C.3 119 C4119 0
14374 H 27.67 53.63 85.19 H 119 C4119 0
14375 H 29.79 53.47 84.43 H 119 C4119 0
14376 H 28.78 52.65 83.59 H 119 C4119 0
14377 C1 30 51.44 84.72 C.3 119 C4119 0
14378 O2 30.21 50.63 83.81 O.3 119 C4119 0
14379 O3 30.48 51.2 85.97 O.3 119 C4119 0
14380 C 28.92 53.2 86.77 C.3 119 C4119 0
14381 H 28.27 53.32 87.44 H 119 C4119 0
14382 H 29.49 52.48 87 H 119 C4119 0
14383 H 29.44 54 86.69 H 119 C4119 0
14384 C 25.17 50.01 86.28 C.3 119 C4119 0
14385 C 26.14 50.29 87.25 C.3 119 C4119 0
14386 H 24.6 49.31 86.6 H 119 C4119 0
14387 H 26.73 49.55 87.33 H 119 C4119 0
14388 H 25.71 50.46 88.08 H 119 C4119 0
14389 C1 26.93 51.54 86.82 C.3 119 C4119 0
14390 O2 27.14 52.44 87.63 O.3 119 C4119 0
14391 O3 27.41 51.64 85.56 O.3 119 C4119 0
14392 C 25.86 49.56 84.98 C.3 119 C4119 0
14393 H 25.2 49.37 84.32 H 119 C4119 0
14394 H 26.42 50.25 84.67 H 119 C4119 0
14395 H 26.37 48.78 85.15 H 119 C4119 0
14396 C 22.1 52.79 85.11 C.3 119 C4119 0
14397 C 23.07 52.4 84.18 C.3 119 C4119 0
14398 H 21.53 53.45 84.72 H 119 C4119 0
14399 H 23.66 53.12 84.01 H 119 C4119 0
14400 H 22.64 52.14 83.37 H 119 C4119 0
14401 C1 23.87 51.21 84.74 C.3 119 C4119 0
14402 O2 24.07 50.22 84.04 O.3 119 C4119 0
14403 O3 24.34 51.24 86.01 O.3 119 C4119 0
14404 C 22.79 53.38 86.36 C.3 119 C4119 0
14405 H 22.13 53.65 86.99 H 119 C4119 0
14406 H 23.35 52.72 86.74 H 119 C4119 0
14407 H 23.31 54.14 86.1 H 119 C4119 0
14408 C 19.03 50.15 86.58 C.3 119 C4119 0
14409 C 20 50.65 87.46 C.3 119 C4119 0
14410 H 18.46 49.55 87.04 H 119 C4119 0
14411 H 20.59 49.94 87.71 H 119 C4119 0
14412 H 19.58 50.99 88.24 H 119 C4119 0
14413 C1 20.8 51.77 86.77 C.3 119 C4119 0
14414 O2 21 52.83 87.37 O.3 119 C4119 0
14415 O3 21.27 51.59 85.51 O.3 119 C4119 0
14416 C 19.72 49.43 85.41 C.3 119 C4119 0
14417 H 19.06 49.1 84.81 H 119 C4119 0
14418 H 20.29 50.04 84.95 H 119 C4119 0
14419 H 20.24 48.71 85.75 H 119 C4119 0
14420 C 15.96 52.61 84.83 C.3 119 C4119 0
14421 C 16.93 52.03 84.01 C.3 119 C4119 0
14422 H 15.4 53.17 84.31 H 119 C4119 0
14423 H 17.52 52.7 83.69 H 119 C4119 0
14424 H 16.51 51.6 83.27 H 119 C4119 0
14425 C1 17.73 50.99 84.82 C.3 119 C4119 0
14426 O2 17.94 49.87 84.35 O.3 119 C4119 0
14427 O3 18.21 51.3 86.05 O.3 119 C4119 0
14428 C 16.65 53.46 85.91 C.3 119 C4119 0
14429 H 16 53.86 86.47 H 119 C4119 0
14430 H 17.22 52.91 86.44 H 119 C4119 0
14431 H 17.17 54.14 85.5 H 119 C4119 0
14432 C 12.89 50.36 86.84 C.3 119 C4119 0
14433 C 13.87 51.04 87.6 C.3 119 C4119 0
14434 H 12.33 49.87 87.42 H 119 C4119 0
14435 H 14.45 50.41 87.99 H 119 C4119 0
14436 H 13.44 51.54 88.28 H 119 C4119 0
14437 C1 14.66 51.98 86.68 C.3 119 C4119 0
14438 O2 14.87 53.15 87.02 O.3 119 C4119 0
14439 O3 15.14 51.53 85.49 O.3 119 C4119 0
14440 C 13.59 49.4 85.86 C.3 119 C4119 0
14441 H 12.93 48.94 85.35 H 119 C4119 0
14442 H 14.15 49.89 85.28 H 119 C4119 0
14443 H 14.1 48.77 86.35 H 119 C4119 0
14444 C 9.83 52.38 84.59 C.3 119 C4119 0
14445 C 10.8 51.62 83.92 C.3 119 C4119 0
14446 H 9.26 52.8 83.96 H 119 C4119 0
14447 H 11.39 52.21 83.46 H 119 C4119 0
14448 H 10.37 51.04 83.3 H 119 C4119 0
14449 C1 11.59 50.79 84.94 C.3 119 C4119 0
14450 O2 11.8 49.59 84.72 O.3 119 C4119 0
14451 O3 12.07 51.37 86.07 O.3 119 C4119 0
14452 C 10.52 53.44 85.46 C.3 119 C4119 0
14453 H 9.86 53.95 85.92 H 119 C4119 0
14454 H 11.08 53.02 86.1 H 119 C4119 0
14455 H 11.04 54.02 84.91 H 119 C4119 0
14456 C 6.76 50.63 87.05 C.3 119 C4119 0
14457 C 7.73 51.45 87.64 C.3 119 C4119 0
14458 H 6.19 50.27 87.73 H 119 C4119 0
14459 H 8.32 50.92 88.16 H 119 C4119 0
14460 H 7.31 52.09 88.19 H 119 C4119 0
14461 C1 8.53 52.17 86.53 C.3 119 C4119 0
14462 O2 8.73 53.38 86.61 O.3 119 C4119 0
14463 O3 9 51.47 85.47 O.3 119 C4119 0
14464 C 7.45 49.47 86.3 C.3 119 C4119 0
14465 H 6.79 48.91 85.91 H 119 C4119 0
14466 H 8.02 49.82 85.63 H 119 C4119 0
14467 H 7.97 48.96 86.92 H 119 C4119 0
14468 H 3.17 51.66 85.08 H 120 C4120 0
14469 C 3.69 52.09 84.41 C.3 120 C4120 0
14470 C 4.66 51.21 83.92 C.3 120 C4120 0
14471 H 3.13 52.37 83.7 H 120 C4120 0
14472 H 5.25 51.68 83.35 H 120 C4120 0
14473 H 4.24 50.51 83.44 H 120 C4120 0
14474 C1 5.46 50.62 85.1 C.3 120 C4120 0
14475 O2 5.67 49.41 85.16 O.3 120 C4120 0
14476 O3 5.94 51.43 86.08 O.3 120 C4120 0
14477 C 4.38 53.33 85.03 C.3 120 C4120 0
14478 H 3.72 53.92 85.36 H 120 C4120 0
14479 H 4.95 53.05 85.74 H 120 C4120 0
14480 H 4.9 53.76 84.36 H 120 C4120 0
14481 C 92.65 63.61 4.44 C.3 121 C4121 0
14482 C 93.62 62.77 3.89 C.3 121 C4121 0
14483 H 92.09 63.94 3.75 H 121 C4121 0
14484 H 94.21 63.28 3.35 H 121 C4121 0
14485 H 93.2 62.1 3.36 H 121 C4121 0
14486 C1 94.42 62.09 5.02 C.3 121 C4121 0
14487 O2 94.63 60.88 4.99 O.3 121 C4121 0
14488 O3 94.9 62.83 6.05 O.3 121 C4121 0
14489 H5 95.42 62.28 6.63 H 121 C4121 0
14490 C 93.34 64.79 5.15 C.3 121 C4121 0
14491 H 92.68 65.37 5.52 H 121 C4121 0
14492 H 93.91 64.47 5.83 H 121 C4121 0
14493 H 93.86 65.28 4.51 H 121 C4121 0
14494 C 89.58 62.25 7.13 C.3 122 C4122 0
14495 C 90.55 63.15 7.59 C.3 122 C4122 0
14496 H 89.02 62 7.85 H 122 C4122 0
14497 H 91.15 62.7 8.19 H 122 C4122 0
14498 H 90.13 63.87 8.04 H 122 C4122 0
14499 C1 91.35 63.69 6.39 C.3 122 C4122 0
14500 O2 91.56 64.9 6.29 O.3 122 C4122 0
14501 O3 91.83 62.84 5.45 O.3 122 C4122 0
14502 C 90.28 60.99 6.57 C.3 122 C4122 0
14503 H 89.62 60.38 6.26 H 122 C4122 0
14504 H 90.84 61.24 5.85 H 122 C4122 0
14505 H 90.79 60.58 7.25 H 122 C4122 0
14506 C 86.52 63.31 4.31 C.3 122 C4122 0
14507 C 87.49 62.36 3.95 C.3 122 C4122 0
14508 H 85.95 63.47 3.56 H 122 C4122 0
14509 H 88.08 62.74 3.31 H 122 C4122 0
14510 H 87.06 61.6 3.58 H 122 C4122 0
14511 C1 88.28 61.95 5.21 C.3 122 C4122 0
14512 O2 88.49 60.76 5.44 O.3 122 C4122 0
14513 O3 88.76 62.9 6.05 O.3 122 C4122 0
14514 C 87.21 64.62 4.73 C.3 122 C4122 0
14515 H 86.55 65.26 4.97 H 122 C4122 0
14516 H 87.77 64.45 5.48 H 122 C4122 0
14517 H 87.73 64.95 4.01 H 122 C4122 0
14518 C 83.45 62.57 7.23 C.3 122 C4122 0
14519 C 84.42 63.54 7.48 C.3 122 C4122 0
14520 H 82.88 62.48 7.99 H 122 C4122 0
14521 H 85.01 63.24 8.16 H 122 C4122 0
14522 H 84 64.35 7.77 H 122 C4122 0
14523 C1 85.22 63.82 6.19 C.3 122 C4122 0
14524 O2 85.42 64.97 5.83 O.3 122 C4122 0
14525 O3 85.69 62.78 5.46 O.3 122 C4122 0
14526 C 84.14 61.22 6.96 C.3 122 C4122 0
14527 H 83.48 60.55 6.79 H 122 C4122 0
14528 H 84.71 61.3 6.2 H 122 C4122 0
14529 H 84.66 60.97 7.71 H 122 C4122 0
14530 C 80.38 62.98 4.24 C.3 122 C4122 0
14531 C 81.35 61.98 4.11 C.3 122 C4122 0
14532 H 79.82 62.98 3.48 H 122 C4122 0
14533 H 81.94 62.21 3.4 H 122 C4122 0
14534 H 80.93 61.15 3.91 H 122 C4122 0
14535 C1 82.15 61.85 5.42 C.3 122 C4122 0
14536 O2 82.36 60.74 5.91 O.3 122 C4122 0
14537 O3 82.63 62.97 6.03 O.3 122 C4122 0
14538 C 81.07 64.35 4.37 C.3 122 C4122 0
14539 H 80.41 65.03 4.47 H 122 C4122 0
14540 H 81.64 64.35 5.13 H 122 C4122 0
14541 H 81.59 64.52 3.59 H 122 C4122 0
14542 C 77.31 62.9 7.26 C.3 122 C4122 0
14543 C 78.28 63.91 7.29 C.3 122 C4122 0
14544 H 76.75 62.98 8.02 H 122 C4122 0
14545 H 78.88 63.76 8.02 H 122 C4122 0
14546 H 77.86 64.75 7.39 H 122 C4122 0
14547 C1 79.08 63.89 5.97 C.3 122 C4122 0
14548 O2 79.29 64.94 5.36 O.3 122 C4122 0
14549 O3 79.56 62.71 5.48 O.3 122 C4122 0
14550 C 78.01 61.52 7.29 C.3 122 C4122 0
14551 H 77.35 60.84 7.27 H 122 C4122 0
14552 H 78.57 61.44 6.53 H 122 C4122 0
14553 H 78.52 61.44 8.08 H 122 C4122 0
14554 C 74.25 62.65 4.25 C.3 122 C4122 0
14555 C 75.22 61.64 4.34 C.3 122 C4122 0
14556 H 73.68 62.48 3.51 H 122 C4122 0
14557 H 75.81 61.7 3.6 H 122 C4122 0
14558 H 74.79 60.79 4.33 H 122 C4122 0
14559 C1 76.01 61.8 5.65 C.3 122 C4122 0
14560 O2 76.22 60.83 6.37 O.3 122 C4122 0
14561 O3 76.49 63.03 6 O.3 122 C4122 0
14562 C 74.94 64.01 4.08 C.3 122 C4122 0
14563 H 74.28 64.69 4.02 H 122 C4122 0
14564 H 75.5 64.18 4.82 H 122 C4122 0
14565 H 75.46 64 3.28 H 122 C4122 0
14566 C 71.18 63.23 7.22 C.3 122 C4122 0
14567 C 72.15 64.22 7.02 C.3 122 C4122 0
14568 H 70.61 63.48 7.94 H 122 C4122 0
14569 H 72.74 64.24 7.76 H 122 C4122 0
14570 H 71.73 65.07 6.93 H 122 C4122 0
14571 C1 72.95 63.91 5.74 C.3 122 C4122 0
14572 O2 73.15 64.8 4.91 O.3 122 C4122 0
14573 O3 73.42 62.66 5.52 O.3 122 C4122 0
14574 C 71.87 61.89 7.54 C.3 122 C4122 0
14575 H 71.21 61.22 7.68 H 122 C4122 0
14576 H 72.44 61.65 6.82 H 122 C4122 0
14577 H 72.39 61.99 8.33 H 122 C4122 0
14578 C 68.11 62.32 4.34 C.3 122 C4122 0
14579 C 69.08 61.36 4.64 C.3 122 C4122 0
14580 H 67.55 61.99 3.65 H 122 C4122 0
14581 H 69.67 61.26 3.9 H 122 C4122 0
14582 H 68.66 60.53 4.82 H 122 C4122 0
14583 C1 69.88 61.81 5.88 C.3 122 C4122 0
14584 O2 70.09 61.02 6.8 O.3 122 C4122 0
14585 O3 70.36 63.08 5.96 O.3 122 C4122 0
14586 C 68.8 63.61 3.86 C.3 122 C4122 0
14587 H 68.14 64.27 3.66 H 122 C4122 0
14588 H 69.37 63.94 4.55 H 122 C4122 0
14589 H 69.32 63.43 3.09 H 122 C4122 0
14590 C 65.04 63.54 7.1 C.3 122 C4122 0
14591 C 66.01 64.47 6.69 C.3 122 C4122 0
14592 H 64.48 63.95 7.75 H 122 C4122 0
14593 H 66.6 64.65 7.41 H 122 C4122 0
14594 H 65.59 65.27 6.42 H 122 C4122 0
14595 C1 66.81 63.89 5.51 C.3 122 C4122 0
14596 O2 67.02 64.57 4.51 O.3 122 C4122 0
14597 O3 67.29 62.61 5.57 O.3 122 C4122 0
14598 C 65.74 62.31 7.71 C.3 122 C4122 0
14599 H 65.08 61.69 7.99 H 122 C4122 0
14600 H 66.3 61.91 7.06 H 122 C4122 0
14601 H 66.25 62.58 8.46 H 122 C4122 0
14602 C 61.98 62.03 4.49 C.3 122 C4122 0
14603 C 62.95 61.15 5 C.3 122 C4122 0
14604 H 61.41 61.55 3.89 H 122 C4122 0
14605 H 63.54 60.89 4.3 H 122 C4122 0
14606 H 62.52 60.38 5.36 H 122 C4122 0
14607 C1 63.74 61.86 6.11 C.3 122 C4122 0
14608 O2 63.95 61.29 7.18 O.3 122 C4122 0
14609 O3 64.22 63.12 5.91 O.3 122 C4122 0
14610 C 62.67 63.18 3.74 C.3 122 C4122 0
14611 H 62.01 63.77 3.4 H 122 C4122 0
14612 H 63.23 63.65 4.34 H 122 C4122 0
14613 H 63.19 62.83 3.03 H 122 C4122 0
14614 C 58.91 63.82 6.91 C.3 122 C4122 0
14615 C 59.88 64.63 6.31 C.3 122 C4122 0
14616 H 58.34 64.36 7.46 H 122 C4122 0
14617 H 60.47 64.97 6.98 H 122 C4122 0
14618 H 59.46 65.36 5.87 H 122 C4122 0
14619 C1 60.68 63.81 5.29 C.3 122 C4122 0
14620 O2 60.88 64.26 4.16 O.3 122 C4122 0
14621 O3 61.15 62.58 5.63 O.3 122 C4122 0
14622 C 59.6 62.76 7.78 C.3 122 C4122 0
14623 H 58.94 62.21 8.19 H 122 C4122 0
14624 H 60.17 62.22 7.24 H 122 C4122 0
14625 H 60.12 63.18 8.46 H 122 C4122 0
14626 C 55.84 61.77 4.7 C.3 122 C4122 0
14627 C 56.81 61.03 5.39 C.3 122 C4122 0
14628 H 55.27 61.18 4.22 H 122 C4122 0
14629 H 57.4 60.62 4.77 H 122 C4122 0
14630 H 56.39 60.36 5.91 H 122 C4122 0
14631 C1 57.61 61.96 6.32 C.3 122 C4122 0
14632 O2 57.81 61.64 7.49 O.3 122 C4122 0
14633 O3 58.09 63.15 5.84 O.3 122 C4122 0
14634 C 56.53 62.73 3.72 C.3 122 C4122 0
14635 H 55.87 63.24 3.26 H 122 C4122 0
14636 H 57.1 63.32 4.2 H 122 C4122 0
14637 H 57.05 62.24 3.1 H 122 C4122 0
14638 C 52.77 64.06 6.67 C.3 122 C4122 0
14639 C 53.74 64.72 5.91 C.3 122 C4122 0
14640 H 52.21 64.7 7.09 H 122 C4122 0
14641 H 54.33 65.19 6.48 H 122 C4122 0
14642 H 53.32 65.33 5.32 H 122 C4122 0
14643 C1 54.54 63.68 5.09 C.3 122 C4122 0
14644 O2 54.75 63.87 3.89 O.3 122 C4122 0
14645 O3 55.02 62.56 5.69 O.3 122 C4122 0
14646 C 53.46 63.21 7.76 C.3 122 C4122 0
14647 H 52.81 62.76 8.27 H 122 C4122 0
14648 H 54.03 62.57 7.34 H 122 C4122 0
14649 H 53.98 63.77 8.32 H 122 C4122 0
14650 C 49.71 61.57 4.97 C.3 122 C4122 0
14651 C 50.68 60.99 5.8 C.3 122 C4122 0
14652 H 49.14 60.88 4.63 H 122 C4122 0
14653 H 51.27 60.46 5.28 H 122 C4122 0
14654 H 50.25 60.45 6.46 H 122 C4122 0
14655 C1 51.47 62.11 6.5 C.3 122 C4122 0
14656 O2 51.68 62.06 7.71 O.3 122 C4122 0
14657 O3 51.95 63.16 5.78 O.3 122 C4122 0
14658 C 50.4 62.29 3.8 C.3 122 C4122 0
14659 H 49.74 62.68 3.23 H 122 C4122 0
14660 H 50.96 62.97 4.14 H 122 C4122 0
14661 H 50.91 61.67 3.3 H 122 C4122 0
14662 C 46.64 64.23 6.39 C.3 122 C4122 0
14663 C 47.61 64.71 5.5 C.3 122 C4122 0
14664 H 46.07 64.95 6.65 H 122 C4122 0
14665 H 48.2 65.29 5.95 H 122 C4122 0
14666 H 47.19 65.17 4.79 H 122 C4122 0
14667 C1 48.41 63.52 4.93 C.3 122 C4122 0
14668 O2 48.61 63.44 3.72 O.3 122 C4122 0
14669 O3 48.88 62.55 5.76 O.3 122 C4122 0
14670 C 47.33 63.64 7.63 C.3 122 C4122 0
14671 H 46.67 63.32 8.23 H 122 C4122 0
14672 H 47.9 62.92 7.37 H 122 C4122 0
14673 H 47.85 64.31 8.05 H 122 C4122 0
14674 C 43.57 61.43 5.27 C.3 122 C4122 0
14675 C 44.54 61.05 6.21 C.3 122 C4122 0
14676 H 43.01 60.68 5.09 H 122 C4122 0
14677 H 45.13 60.42 5.82 H 122 C4122 0
14678 H 44.12 60.67 6.97 H 122 C4122 0
14679 C1 45.34 62.3 6.65 C.3 122 C4122 0
14680 O2 45.54 62.51 7.84 O.3 122 C4122 0
14681 O3 45.82 63.16 5.71 O.3 122 C4122 0
14682 C 44.26 61.88 3.97 C.3 122 C4122 0
14683 H 43.6 62.13 3.34 H 122 C4122 0
14684 H 44.83 62.62 4.15 H 122 C4122 0
14685 H 44.78 61.16 3.62 H 122 C4122 0
14686 C 40.5 64.34 6.07 C.3 122 C4122 0
14687 C 41.47 64.6 5.1 C.3 122 C4122 0
14688 H 39.94 65.09 6.17 H 122 C4122 0
14689 H 42.06 65.28 5.41 H 122 C4122 0
14690 H 41.05 64.9 4.3 H 122 C4122 0
14691 C1 42.27 63.32 4.8 C.3 122 C4122 0
14692 O2 42.48 62.98 3.64 O.3 122 C4122 0
14693 O3 42.75 62.56 5.83 O.3 122 C4122 0
14694 C 41.19 64.03 7.41 C.3 122 C4122 0
14695 H 40.54 63.85 8.07 H 122 C4122 0
14696 H 41.76 63.28 7.31 H 122 C4122 0
14697 H 41.71 64.78 7.68 H 122 C4122 0
14698 C 37.44 61.36 5.6 C.3 122 C4122 0
14699 C 38.41 61.2 6.6 C.3 122 C4122 0
14700 H 36.87 60.59 5.59 H 122 C4122 0
14701 H 39 60.49 6.36 H 122 C4122 0
14702 H 37.98 60.99 7.42 H 122 C4122 0
14703 C1 39.2 62.51 6.75 C.3 122 C4122 0
14704 O2 39.41 62.98 7.87 O.3 122 C4122 0
14705 O3 39.68 63.15 5.65 O.3 122 C4122 0
14706 C 38.13 61.51 4.23 C.3 122 C4122 0
14707 H 37.47 61.62 3.56 H 122 C4122 0
14708 H 38.69 62.27 4.25 H 122 C4122 0
14709 H 38.64 60.73 4.05 H 122 C4122 0
14710 C 34.37 64.37 5.74 C.3 122 C4122 0
14711 C 35.34 64.42 4.73 C.3 122 C4122 0
14712 H 33.8 65.13 5.67 H 122 C4122 0
14713 H 35.93 65.14 4.89 H 122 C4122 0
14714 H 34.91 64.53 3.89 H 122 C4122 0
14715 C1 36.14 63.1 4.72 C.3 122 C4122 0
14716 O2 36.34 62.51 3.66 O.3 122 C4122 0
14717 O3 36.61 62.59 5.89 O.3 122 C4122 0
14718 C 35.06 64.37 7.11 C.3 122 C4122 0
14719 H 34.4 64.34 7.8 H 122 C4122 0
14720 H 35.62 63.61 7.18 H 122 C4122 0
14721 H 35.58 65.16 7.21 H 122 C4122 0
14722 C 31.3 61.36 5.94 C.3 122 C4122 0
14723 C 32.27 61.43 6.94 C.3 122 C4122 0
14724 H 30.73 60.61 6.09 H 122 C4122 0
14725 H 32.86 60.68 6.86 H 122 C4122 0
14726 H 31.85 61.4 7.79 H 122 C4122 0
14727 C1 33.07 62.74 6.8 C.3 122 C4122 0
14728 O2 33.27 63.44 7.79 O.3 122 C4122 0
14729 O3 33.54 63.11 5.59 O.3 122 C4122 0
14730 C 31.99 61.21 4.57 C.3 122 C4122 0
14731 H 31.33 61.16 3.88 H 122 C4122 0
14732 H 32.56 61.96 4.41 H 122 C4122 0
14733 H 32.51 60.41 4.56 H 122 C4122 0
14734 C 28.23 64.33 5.41 C.3 122 C4122 0
14735 C 29.2 64.16 4.41 C.3 122 C4122 0
14736 H 27.67 65.06 5.17 H 122 C4122 0
14737 H 29.79 64.9 4.41 H 122 C4122 0
14738 H 28.78 64.08 3.57 H 122 C4122 0
14739 C1 30 62.87 4.7 C.3 122 C4122 0
14740 O2 30.21 62.06 3.79 O.3 122 C4122 0
14741 O3 30.48 62.63 5.95 O.3 122 C4122 0
14742 C 28.92 64.63 6.75 C.3 122 C4122 0
14743 H 28.27 64.75 7.42 H 122 C4122 0
14744 H 29.49 63.91 6.98 H 122 C4122 0
14745 H 29.44 65.43 6.67 H 122 C4122 0
14746 C 25.17 61.44 6.26 C.3 122 C4122 0
14747 C 26.14 61.72 7.23 C.3 122 C4122 0
14748 H 24.6 60.74 6.58 H 122 C4122 0
14749 H 26.73 60.98 7.31 H 122 C4122 0
14750 H 25.71 61.89 8.06 H 122 C4122 0
14751 C1 26.93 62.97 6.8 C.3 122 C4122 0
14752 O2 27.14 63.87 7.61 O.3 122 C4122 0
14753 O3 27.41 63.07 5.54 O.3 122 C4122 0
14754 C 25.86 60.99 4.96 C.3 122 C4122 0
14755 H 25.2 60.8 4.3 H 122 C4122 0
14756 H 26.42 61.68 4.65 H 122 C4122 0
14757 H 26.37 60.21 5.13 H 122 C4122 0
14758 C 22.1 64.22 5.09 C.3 122 C4122 0
14759 C 23.07 63.83 4.16 C.3 122 C4122 0
14760 H 21.53 64.88 4.7 H 122 C4122 0
14761 H 23.66 64.55 3.99 H 122 C4122 0
14762 H 22.64 63.57 3.35 H 122 C4122 0
14763 C1 23.87 62.64 4.72 C.3 122 C4122 0
14764 O2 24.07 61.65 4.02 O.3 122 C4122 0
14765 O3 24.34 62.67 5.99 O.3 122 C4122 0
14766 C 22.79 64.81 6.34 C.3 122 C4122 0
14767 H 22.13 65.08 6.97 H 122 C4122 0
14768 H 23.35 64.15 6.72 H 122 C4122 0
14769 H 23.31 65.57 6.08 H 122 C4122 0
14770 C 19.03 61.58 6.56 C.3 122 C4122 0
14771 C 20 62.08 7.44 C.3 122 C4122 0
14772 H 18.46 60.98 7.02 H 122 C4122 0
14773 H 20.59 61.37 7.69 H 122 C4122 0
14774 H 19.58 62.42 8.22 H 122 C4122 0
14775 C1 20.8 63.2 6.75 C.3 122 C4122 0
14776 O2 21 64.26 7.35 O.3 122 C4122 0
14777 O3 21.27 63.02 5.49 O.3 122 C4122 0
14778 C 19.72 60.86 5.39 C.3 122 C4122 0
14779 H 19.06 60.53 4.79 H 122 C4122 0
14780 H 20.29 61.47 4.93 H 122 C4122 0
14781 H 20.24 60.14 5.73 H 122 C4122 0
14782 C 15.96 64.04 4.81 C.3 122 C4122 0
14783 C 16.93 63.46 3.99 C.3 122 C4122 0
14784 H 15.4 64.6 4.29 H 122 C4122 0
14785 H 17.52 64.13 3.67 H 122 C4122 0
14786 H 16.51 63.03 3.25 H 122 C4122 0
14787 C1 17.73 62.42 4.8 C.3 122 C4122 0
14788 O2 17.94 61.3 4.33 O.3 122 C4122 0
14789 O3 18.21 62.73 6.03 O.3 122 C4122 0
14790 C 16.65 64.89 5.89 C.3 122 C4122 0
14791 H 16 65.29 6.45 H 122 C4122 0
14792 H 17.22 64.34 6.42 H 122 C4122 0
14793 H 17.17 65.57 5.48 H 122 C4122 0
14794 C 12.89 61.79 6.82 C.3 122 C4122 0
14795 C 13.87 62.47 7.58 C.3 122 C4122 0
14796 H 12.33 61.3 7.4 H 122 C4122 0
14797 H 14.45 61.84 7.97 H 122 C4122 0
14798 H 13.44 62.97 8.26 H 122 C4122 0
14799 C1 14.66 63.41 6.66 C.3 122 C4122 0
14800 O2 14.87 64.58 7 O.3 122 C4122 0
14801 O3 15.14 62.96 5.47 O.3 122 C4122 0
14802 C 13.59 60.83 5.84 C.3 122 C4122 0
14803 H 12.93 60.37 5.33 H 122 C4122 0
14804 H 14.15 61.32 5.26 H 122 C4122 0
14805 H 14.1 60.2 6.33 H 122 C4122 0
14806 C 9.83 63.81 4.57 C.3 122 C4122 0
14807 C 10.8 63.05 3.9 C.3 122 C4122 0
14808 H 9.26 64.23 3.94 H 122 C4122 0
14809 H 11.39 63.64 3.44 H 122 C4122 0
14810 H 10.37 62.47 3.28 H 122 C4122 0
14811 C1 11.59 62.22 4.92 C.3 122 C4122 0
14812 O2 11.8 61.02 4.7 O.3 122 C4122 0
14813 O3 12.07 62.8 6.05 O.3 122 C4122 0
14814 C 10.52 64.87 5.44 C.3 122 C4122 0
14815 H 9.86 65.38 5.9 H 122 C4122 0
14816 H 11.08 64.45 6.08 H 122 C4122 0
14817 H 11.04 65.45 4.89 H 122 C4122 0
14818 C 6.76 62.06 7.03 C.3 122 C4122 0
14819 C 7.73 62.88 7.62 C.3 122 C4122 0
14820 H 6.19 61.7 7.71 H 122 C4122 0
14821 H 8.32 62.35 8.14 H 122 C4122 0
14822 H 7.31 63.52 8.17 H 122 C4122 0
14823 C1 8.53 63.6 6.51 C.3 122 C4122 0
14824 O2 8.73 64.81 6.59 O.3 122 C4122 0
14825 O3 9 62.9 5.45 O.3 122 C4122 0
14826 C 7.45 60.9 6.28 C.3 122 C4122 0
14827 H 6.79 60.34 5.89 H 122 C4122 0
14828 H 8.02 61.25 5.61 H 122 C4122 0
14829 H 7.97 60.39 6.9 H 122 C4122 0
14830 H 3.17 63.09 5.06 H 123 C4123 0
14831 C 3.69 63.52 4.39 C.3 123 C4123 0
14832 C 4.66 62.64 3.9 C.3 123 C4123 0
14833 H 3.13 63.8 3.68 H 123 C4123 0
14834 H 5.25 63.11 3.33 H 123 C4123 0
14835 H 4.24 61.94 3.42 H 123 C4123 0
14836 C1 5.46 62.05 5.08 C.3 123 C4123 0
14837 O2 5.67 60.84 5.14 O.3 123 C4123 0
14838 O3 5.94 62.86 6.06 O.3 123 C4123 0
14839 C 4.38 64.76 5.01 C.3 123 C4123 0
14840 H 3.72 65.35 5.34 H 123 C4123 0
14841 H 4.95 64.48 5.72 H 123 C4123 0
14842 H 4.9 65.19 4.34 H 123 C4123 0
14843 C 92.65 63.61 15.87 C.3 124 C4124 0
14844 C 93.62 62.77 15.32 C.3 124 C4124 0
14845 H 92.09 63.94 15.18 H 124 C4124 0
14846 H 94.21 63.28 14.78 H 124 C4124 0
14847 H 93.2 62.1 14.79 H 124 C4124 0
14848 C1 94.42 62.09 16.45 C.3 124 C4124 0
14849 O2 94.63 60.88 16.42 O.3 124 C4124 0
14850 O3 94.9 62.83 17.48 O.3 124 C4124 0
14851 H5 95.42 62.28 18.06 H 124 C4124 0
14852 C 93.34 64.79 16.58 C.3 124 C4124 0
14853 H 92.68 65.37 16.95 H 124 C4124 0
14854 H 93.91 64.47 17.26 H 124 C4124 0
14855 H 93.86 65.28 15.94 H 124 C4124 0
14856 C 89.58 62.25 18.56 C.3 125 C4125 0
14857 C 90.55 63.15 19.02 C.3 125 C4125 0
14858 H 89.02 62 19.28 H 125 C4125 0
14859 H 91.15 62.7 19.62 H 125 C4125 0
14860 H 90.13 63.87 19.47 H 125 C4125 0
14861 C1 91.35 63.69 17.82 C.3 125 C4125 0
14862 O2 91.56 64.9 17.72 O.3 125 C4125 0
14863 O3 91.83 62.84 16.88 O.3 125 C4125 0
14864 C 90.28 60.99 18 C.3 125 C4125 0
14865 H 89.62 60.38 17.69 H 125 C4125 0
14866 H 90.84 61.24 17.28 H 125 C4125 0
14867 H 90.79 60.58 18.68 H 125 C4125 0
14868 C 86.52 63.31 15.74 C.3 125 C4125 0
14869 C 87.49 62.36 15.38 C.3 125 C4125 0
14870 H 85.95 63.47 14.99 H 125 C4125 0
14871 H 88.08 62.74 14.74 H 125 C4125 0
14872 H 87.06 61.6 15.01 H 125 C4125 0
14873 C1 88.28 61.95 16.64 C.3 125 C4125 0
14874 O2 88.49 60.76 16.87 O.3 125 C4125 0
14875 O3 88.76 62.9 17.48 O.3 125 C4125 0
14876 C 87.21 64.62 16.16 C.3 125 C4125 0
14877 H 86.55 65.26 16.4 H 125 C4125 0
14878 H 87.77 64.45 16.91 H 125 C4125 0
14879 H 87.73 64.95 15.44 H 125 C4125 0
14880 C 83.45 62.57 18.66 C.3 125 C4125 0
14881 C 84.42 63.54 18.91 C.3 125 C4125 0
14882 H 82.88 62.48 19.42 H 125 C4125 0
14883 H 85.01 63.24 19.59 H 125 C4125 0
14884 H 84 64.35 19.2 H 125 C4125 0
14885 C1 85.22 63.82 17.62 C.3 125 C4125 0
14886 O2 85.42 64.97 17.26 O.3 125 C4125 0
14887 O3 85.69 62.78 16.89 O.3 125 C4125 0
14888 C 84.14 61.22 18.39 C.3 125 C4125 0
14889 H 83.48 60.55 18.22 H 125 C4125 0
14890 H 84.71 61.3 17.63 H 125 C4125 0
14891 H 84.66 60.97 19.14 H 125 C4125 0
14892 C 80.38 62.98 15.67 C.3 125 C4125 0
14893 C 81.35 61.98 15.54 C.3 125 C4125 0
14894 H 79.82 62.98 14.91 H 125 C4125 0
14895 H 81.94 62.21 14.83 H 125 C4125 0
14896 H 80.93 61.15 15.34 H 125 C4125 0
14897 C1 82.15 61.85 16.85 C.3 125 C4125 0
14898 O2 82.36 60.74 17.34 O.3 125 C4125 0
14899 O3 82.63 62.97 17.46 O.3 125 C4125 0
14900 C 81.07 64.35 15.8 C.3 125 C4125 0
14901 H 80.41 65.03 15.9 H 125 C4125 0
14902 H 81.64 64.35 16.56 H 125 C4125 0
14903 H 81.59 64.52 15.02 H 125 C4125 0
14904 C 77.31 62.9 18.69 C.3 125 C4125 0
14905 C 78.28 63.91 18.72 C.3 125 C4125 0
14906 H 76.75 62.98 19.45 H 125 C4125 0
14907 H 78.88 63.76 19.45 H 125 C4125 0
14908 H 77.86 64.75 18.82 H 125 C4125 0
14909 C1 79.08 63.89 17.4 C.3 125 C4125 0
14910 O2 79.29 64.94 16.79 O.3 125 C4125 0
14911 O3 79.56 62.71 16.91 O.3 125 C4125 0
14912 C 78.01 61.52 18.72 C.3 125 C4125 0
14913 H 77.35 60.84 18.7 H 125 C4125 0
14914 H 78.57 61.44 17.96 H 125 C4125 0
14915 H 78.52 61.44 19.51 H 125 C4125 0
14916 C 74.25 62.65 15.68 C.3 125 C4125 0
14917 C 75.22 61.64 15.77 C.3 125 C4125 0
14918 H 73.68 62.48 14.94 H 125 C4125 0
14919 H 75.81 61.7 15.03 H 125 C4125 0
14920 H 74.79 60.79 15.76 H 125 C4125 0
14921 C1 76.01 61.8 17.08 C.3 125 C4125 0
14922 O2 76.22 60.83 17.8 O.3 125 C4125 0
14923 O3 76.49 63.03 17.43 O.3 125 C4125 0
14924 C 74.94 64.01 15.51 C.3 125 C4125 0
14925 H 74.28 64.69 15.45 H 125 C4125 0
14926 H 75.5 64.18 16.25 H 125 C4125 0
14927 H 75.46 64 14.71 H 125 C4125 0
14928 C 71.18 63.23 18.65 C.3 125 C4125 0
14929 C 72.15 64.22 18.45 C.3 125 C4125 0
14930 H 70.61 63.48 19.37 H 125 C4125 0
14931 H 72.74 64.24 19.19 H 125 C4125 0
14932 H 71.73 65.07 18.36 H 125 C4125 0
14933 C1 72.95 63.91 17.17 C.3 125 C4125 0
14934 O2 73.15 64.8 16.34 O.3 125 C4125 0
14935 O3 73.42 62.66 16.95 O.3 125 C4125 0
14936 C 71.87 61.89 18.97 C.3 125 C4125 0
14937 H 71.21 61.22 19.11 H 125 C4125 0
14938 H 72.44 61.65 18.25 H 125 C4125 0
14939 H 72.39 61.99 19.76 H 125 C4125 0
14940 C 68.11 62.32 15.77 C.3 125 C4125 0
14941 C 69.08 61.36 16.07 C.3 125 C4125 0
14942 H 67.55 61.99 15.08 H 125 C4125 0
14943 H 69.67 61.26 15.33 H 125 C4125 0
14944 H 68.66 60.53 16.25 H 125 C4125 0
14945 C1 69.88 61.81 17.31 C.3 125 C4125 0
14946 O2 70.09 61.02 18.23 O.3 125 C4125 0
14947 O3 70.36 63.08 17.39 O.3 125 C4125 0
14948 C 68.8 63.61 15.29 C.3 125 C4125 0
14949 H 68.14 64.27 15.09 H 125 C4125 0
14950 H 69.37 63.94 15.98 H 125 C4125 0
14951 H 69.32 63.43 14.52 H 125 C4125 0
14952 C 65.04 63.54 18.53 C.3 125 C4125 0
14953 C 66.01 64.47 18.12 C.3 125 C4125 0
14954 H 64.48 63.95 19.18 H 125 C4125 0
14955 H 66.6 64.65 18.84 H 125 C4125 0
14956 H 65.59 65.27 17.85 H 125 C4125 0
14957 C1 66.81 63.89 16.94 C.3 125 C4125 0
14958 O2 67.02 64.57 15.94 O.3 125 C4125 0
14959 O3 67.29 62.61 17 O.3 125 C4125 0
14960 C 65.74 62.31 19.14 C.3 125 C4125 0
14961 H 65.08 61.69 19.42 H 125 C4125 0
14962 H 66.3 61.91 18.49 H 125 C4125 0
14963 H 66.25 62.58 19.89 H 125 C4125 0
14964 C 61.98 62.03 15.92 C.3 125 C4125 0
14965 C 62.95 61.15 16.43 C.3 125 C4125 0
14966 H 61.41 61.55 15.32 H 125 C4125 0
14967 H 63.54 60.89 15.73 H 125 C4125 0
14968 H 62.52 60.38 16.79 H 125 C4125 0
14969 C1 63.74 61.86 17.54 C.3 125 C4125 0
14970 O2 63.95 61.29 18.61 O.3 125 C4125 0
14971 O3 64.22 63.12 17.34 O.3 125 C4125 0
14972 C 62.67 63.18 15.17 C.3 125 C4125 0
14973 H 62.01 63.77 14.83 H 125 C4125 0
14974 H 63.23 63.65 15.77 H 125 C4125 0
14975 H 63.19 62.83 14.46 H 125 C4125 0
14976 C 58.91 63.82 18.34 C.3 125 C4125 0
14977 C 59.88 64.63 17.74 C.3 125 C4125 0
14978 H 58.34 64.36 18.89 H 125 C4125 0
14979 H 60.47 64.97 18.41 H 125 C4125 0
14980 H 59.46 65.36 17.3 H 125 C4125 0
14981 C1 60.68 63.81 16.72 C.3 125 C4125 0
14982 O2 60.88 64.26 15.59 O.3 125 C4125 0
14983 O3 61.15 62.58 17.06 O.3 125 C4125 0
14984 C 59.6 62.76 19.21 C.3 125 C4125 0
14985 H 58.94 62.21 19.62 H 125 C4125 0
14986 H 60.17 62.22 18.67 H 125 C4125 0
14987 H 60.12 63.18 19.89 H 125 C4125 0
14988 C 55.84 61.77 16.13 C.3 125 C4125 0
14989 C 56.81 61.03 16.82 C.3 125 C4125 0
14990 H 55.27 61.18 15.65 H 125 C4125 0
14991 H 57.4 60.62 16.2 H 125 C4125 0
14992 H 56.39 60.36 17.34 H 125 C4125 0
14993 C1 57.61 61.96 17.75 C.3 125 C4125 0
14994 O2 57.81 61.64 18.92 O.3 125 C4125 0
14995 O3 58.09 63.15 17.27 O.3 125 C4125 0
14996 C 56.53 62.73 15.15 C.3 125 C4125 0
14997 H 55.87 63.24 14.69 H 125 C4125 0
14998 H 57.1 63.32 15.63 H 125 C4125 0
14999 H 57.05 62.24 14.53 H 125 C4125 0
15000 C 52.77 64.06 18.1 C.3 125 C4125 0
15001 C 53.74 64.72 17.34 C.3 125 C4125 0
15002 H 52.21 64.7 18.52 H 125 C4125 0
15003 H 54.33 65.19 17.91 H 125 C4125 0
15004 H 53.32 65.33 16.75 H 125 C4125 0
15005 C1 54.54 63.68 16.52 C.3 125 C4125 0
15006 O2 54.75 63.87 15.32 O.3 125 C4125 0
15007 O3 55.02 62.56 17.12 O.3 125 C4125 0
15008 C 53.46 63.21 19.19 C.3 125 C4125 0
15009 H 52.81 62.76 19.7 H 125 C4125 0
15010 H 54.03 62.57 18.77 H 125 C4125 0
15011 H 53.98 63.77 19.75 H 125 C4125 0
15012 C 49.71 61.57 16.4 C.3 125 C4125 0
15013 C 50.68 60.99 17.23 C.3 125 C4125 0
15014 H 49.14 60.88 16.06 H 125 C4125 0
15015 H 51.27 60.46 16.71 H 125 C4125 0
15016 H 50.25 60.45 17.89 H 125 C4125 0
15017 C1 51.47 62.11 17.93 C.3 125 C4125 0
15018 O2 51.68 62.06 19.14 O.3 125 C4125 0
15019 O3 51.95 63.16 17.21 O.3 125 C4125 0
15020 C 50.4 62.29 15.23 C.3 125 C4125 0
15021 H 49.74 62.68 14.66 H 125 C4125 0
15022 H 50.96 62.97 15.57 H 125 C4125 0
15023 H 50.91 61.67 14.73 H 125 C4125 0
15024 C 46.64 64.23 17.82 C.3 125 C4125 0
15025 C 47.61 64.71 16.93 C.3 125 C4125 0
15026 H 46.07 64.95 18.08 H 125 C4125 0
15027 H 48.2 65.29 17.38 H 125 C4125 0
15028 H 47.19 65.17 16.22 H 125 C4125 0
15029 C1 48.41 63.52 16.36 C.3 125 C4125 0
15030 O2 48.61 63.44 15.15 O.3 125 C4125 0
15031 O3 48.88 62.55 17.19 O.3 125 C4125 0
15032 C 47.33 63.64 19.06 C.3 125 C4125 0
15033 H 46.67 63.32 19.66 H 125 C4125 0
15034 H 47.9 62.92 18.8 H 125 C4125 0
15035 H 47.85 64.31 19.48 H 125 C4125 0
15036 C 43.57 61.43 16.7 C.3 125 C4125 0
15037 C 44.54 61.05 17.64 C.3 125 C4125 0
15038 H 43.01 60.68 16.52 H 125 C4125 0
15039 H 45.13 60.42 17.25 H 125 C4125 0
15040 H 44.12 60.67 18.4 H 125 C4125 0
15041 C1 45.34 62.3 18.08 C.3 125 C4125 0
15042 O2 45.54 62.51 19.27 O.3 125 C4125 0
15043 O3 45.82 63.16 17.14 O.3 125 C4125 0
15044 C 44.26 61.88 15.4 C.3 125 C4125 0
15045 H 43.6 62.13 14.77 H 125 C4125 0
15046 H 44.83 62.62 15.58 H 125 C4125 0
15047 H 44.78 61.16 15.05 H 125 C4125 0
15048 C 40.5 64.34 17.5 C.3 125 C4125 0
15049 C 41.47 64.6 16.53 C.3 125 C4125 0
15050 H 39.94 65.09 17.6 H 125 C4125 0
15051 H 42.06 65.28 16.84 H 125 C4125 0
15052 H 41.05 64.9 15.73 H 125 C4125 0
15053 C1 42.27 63.32 16.23 C.3 125 C4125 0
15054 O2 42.48 62.98 15.07 O.3 125 C4125 0
15055 O3 42.75 62.56 17.26 O.3 125 C4125 0
15056 C 41.19 64.03 18.84 C.3 125 C4125 0
15057 H 40.54 63.85 19.5 H 125 C4125 0
15058 H 41.76 63.28 18.74 H 125 C4125 0
15059 H 41.71 64.78 19.11 H 125 C4125 0
15060 C 37.44 61.36 17.03 C.3 125 C4125 0
15061 C 38.41 61.2 18.03 C.3 125 C4125 0
15062 H 36.87 60.59 17.02 H 125 C4125 0
15063 H 39 60.49 17.79 H 125 C4125 0
15064 H 37.98 60.99 18.85 H 125 C4125 0
15065 C1 39.2 62.51 18.18 C.3 125 C4125 0
15066 O2 39.41 62.98 19.3 O.3 125 C4125 0
15067 O3 39.68 63.15 17.08 O.3 125 C4125 0
15068 C 38.13 61.51 15.66 C.3 125 C4125 0
15069 H 37.47 61.62 14.99 H 125 C4125 0
15070 H 38.69 62.27 15.68 H 125 C4125 0
15071 H 38.64 60.73 15.48 H 125 C4125 0
15072 C 34.37 64.37 17.17 C.3 125 C4125 0
15073 C 35.34 64.42 16.16 C.3 125 C4125 0
15074 H 33.8 65.13 17.1 H 125 C4125 0
15075 H 35.93 65.14 16.32 H 125 C4125 0
15076 H 34.91 64.53 15.32 H 125 C4125 0
15077 C1 36.14 63.1 16.15 C.3 125 C4125 0
15078 O2 36.34 62.51 15.09 O.3 125 C4125 0
15079 O3 36.61 62.59 17.32 O.3 125 C4125 0
15080 C 35.06 64.37 18.54 C.3 125 C4125 0
15081 H 34.4 64.34 19.23 H 125 C4125 0
15082 H 35.62 63.61 18.61 H 125 C4125 0
15083 H 35.58 65.16 18.64 H 125 C4125 0
15084 C 31.3 61.36 17.37 C.3 125 C4125 0
15085 C 32.27 61.43 18.37 C.3 125 C4125 0
15086 H 30.73 60.61 17.52 H 125 C4125 0
15087 H 32.86 60.68 18.29 H 125 C4125 0
15088 H 31.85 61.4 19.22 H 125 C4125 0
15089 C1 33.07 62.74 18.23 C.3 125 C4125 0
15090 O2 33.27 63.44 19.22 O.3 125 C4125 0
15091 O3 33.54 63.11 17.02 O.3 125 C4125 0
15092 C 31.99 61.21 16 C.3 125 C4125 0
15093 H 31.33 61.16 15.31 H 125 C4125 0
15094 H 32.56 61.96 15.84 H 125 C4125 0
15095 H 32.51 60.41 15.99 H 125 C4125 0
15096 C 28.23 64.33 16.84 C.3 125 C4125 0
15097 C 29.2 64.16 15.84 C.3 125 C4125 0
15098 H 27.67 65.06 16.6 H 125 C4125 0
15099 H 29.79 64.9 15.84 H 125 C4125 0
15100 H 28.78 64.08 15 H 125 C4125 0
15101 C1 30 62.87 16.13 C.3 125 C4125 0
15102 O2 30.21 62.06 15.22 O.3 125 C4125 0
15103 O3 30.48 62.63 17.38 O.3 125 C4125 0
15104 C 28.92 64.63 18.18 C.3 125 C4125 0
15105 H 28.27 64.75 18.85 H 125 C4125 0
15106 H 29.49 63.91 18.41 H 125 C4125 0
15107 H 29.44 65.43 18.1 H 125 C4125 0
15108 C 25.17 61.44 17.69 C.3 125 C4125 0
15109 C 26.14 61.72 18.66 C.3 125 C4125 0
15110 H 24.6 60.74 18.01 H 125 C4125 0
15111 H 26.73 60.98 18.74 H 125 C4125 0
15112 H 25.71 61.89 19.49 H 125 C4125 0
15113 C1 26.93 62.97 18.23 C.3 125 C4125 0
15114 O2 27.14 63.87 19.04 O.3 125 C4125 0
15115 O3 27.41 63.07 16.97 O.3 125 C4125 0
15116 C 25.86 60.99 16.39 C.3 125 C4125 0
15117 H 25.2 60.8 15.73 H 125 C4125 0
15118 H 26.42 61.68 16.08 H 125 C4125 0
15119 H 26.37 60.21 16.56 H 125 C4125 0
15120 C 22.1 64.22 16.52 C.3 125 C4125 0
15121 C 23.07 63.83 15.59 C.3 125 C4125 0
15122 H 21.53 64.88 16.13 H 125 C4125 0
15123 H 23.66 64.55 15.42 H 125 C4125 0
15124 H 22.64 63.57 14.78 H 125 C4125 0
15125 C1 23.87 62.64 16.15 C.3 125 C4125 0
15126 O2 24.07 61.65 15.45 O.3 125 C4125 0
15127 O3 24.34 62.67 17.42 O.3 125 C4125 0
15128 C 22.79 64.81 17.77 C.3 125 C4125 0
15129 H 22.13 65.08 18.4 H 125 C4125 0
15130 H 23.35 64.15 18.15 H 125 C4125 0
15131 H 23.31 65.57 17.51 H 125 C4125 0
15132 C 19.03 61.58 17.99 C.3 125 C4125 0
15133 C 20 62.08 18.87 C.3 125 C4125 0
15134 H 18.46 60.98 18.45 H 125 C4125 0
15135 H 20.59 61.37 19.12 H 125 C4125 0
15136 H 19.58 62.42 19.65 H 125 C4125 0
15137 C1 20.8 63.2 18.18 C.3 125 C4125 0
15138 O2 21 64.26 18.78 O.3 125 C4125 0
15139 O3 21.27 63.02 16.92 O.3 125 C4125 0
15140 C 19.72 60.86 16.82 C.3 125 C4125 0
15141 H 19.06 60.53 16.22 H 125 C4125 0
15142 H 20.29 61.47 16.36 H 125 C4125 0
15143 H 20.24 60.14 17.16 H 125 C4125 0
15144 C 15.96 64.04 16.24 C.3 125 C4125 0
15145 C 16.93 63.46 15.42 C.3 125 C4125 0
15146 H 15.4 64.6 15.72 H 125 C4125 0
15147 H 17.52 64.13 15.1 H 125 C4125 0
15148 H 16.51 63.03 14.68 H 125 C4125 0
15149 C1 17.73 62.42 16.23 C.3 125 C4125 0
15150 O2 17.94 61.3 15.76 O.3 125 C4125 0
15151 O3 18.21 62.73 17.46 O.3 125 C4125 0
15152 C 16.65 64.89 17.32 C.3 125 C4125 0
15153 H 16 65.29 17.88 H 125 C4125 0
15154 H 17.22 64.34 17.85 H 125 C4125 0
15155 H 17.17 65.57 16.91 H 125 C4125 0
15156 C 12.89 61.79 18.25 C.3 125 C4125 0
15157 C 13.87 62.47 19.01 C.3 125 C4125 0
15158 H 12.33 61.3 18.83 H 125 C4125 0
15159 H 14.45 61.84 19.4 H 125 C4125 0
15160 H 13.44 62.97 19.69 H 125 C4125 0
15161 C1 14.66 63.41 18.09 C.3 125 C4125 0
15162 O2 14.87 64.58 18.43 O.3 125 C4125 0
15163 O3 15.14 62.96 16.9 O.3 125 C4125 0
15164 C 13.59 60.83 17.27 C.3 125 C4125 0
15165 H 12.93 60.37 16.76 H 125 C4125 0
15166 H 14.15 61.32 16.69 H 125 C4125 0
15167 H 14.1 60.2 17.76 H 125 C4125 0
15168 C 9.83 63.81 16 C.3 125 C4125 0
15169 C 10.8 63.05 15.33 C.3 125 C4125 0
15170 H 9.26 64.23 15.37 H 125 C4125 0
15171 H 11.39 63.64 14.87 H 125 C4125 0
15172 H 10.37 62.47 14.71 H 125 C4125 0
15173 C1 11.59 62.22 16.35 C.3 125 C4125 0
15174 O2 11.8 61.02 16.13 O.3 125 C4125 0
15175 O3 12.07 62.8 17.48 O.3 125 C4125 0
15176 C 10.52 64.87 16.87 C.3 125 C4125 0
15177 H 9.86 65.38 17.33 H 125 C4125 0
15178 H 11.08 64.45 17.51 H 125 C4125 0
15179 H 11.04 65.45 16.32 H 125 C4125 0
15180 C 6.76 62.06 18.46 C.3 125 C4125 0
15181 C 7.73 62.88 19.05 C.3 125 C4125 0
15182 H 6.19 61.7 19.14 H 125 C4125 0
15183 H 8.32 62.35 19.57 H 125 C4125 0
15184 H 7.31 63.52 19.6 H 125 C4125 0
15185 C1 8.53 63.6 17.94 C.3 125 C4125 0
15186 O2 8.73 64.81 18.02 O.3 125 C4125 0
15187 O3 9 62.9 16.88 O.3 125 C4125 0
15188 C 7.45 60.9 17.71 C.3 125 C4125 0
15189 H 6.79 60.34 17.32 H 125 C4125 0
15190 H 8.02 61.25 17.04 H 125 C4125 0
15191 H 7.97 60.39 18.33 H 125 C4125 0
15192 H 3.17 63.09 16.49 H 126 C4126 0
15193 C 3.69 63.52 15.82 C.3 126 C4126 0
15194 C 4.66 62.64 15.33 C.3 126 C4126 0
15195 H 3.13 63.8 15.11 H 126 C4126 0
15196 H 5.25 63.11 14.76 H 126 C4126 0
15197 H 4.24 61.94 14.85 H 126 C4126 0
15198 C1 5.46 62.05 16.51 C.3 126 C4126 0
15199 O2 5.67 60.84 16.57 O.3 126 C4126 0
15200 O3 5.94 62.86 17.49 O.3 126 C4126 0
15201 C 4.38 64.76 16.44 C.3 126 C4126 0
15202 H 3.72 65.35 16.77 H 126 C4126 0
15203 H 4.95 64.48 17.15 H 126 C4126 0
15204 H 4.9 65.19 15.77 H 126 C4126 0
15205 C 92.65 63.61 27.3 C.3 127 C4127 0
15206 C 93.62 62.77 26.75 C.3 127 C4127 0
15207 H 92.09 63.94 26.61 H 127 C4127 0
15208 H 94.21 63.28 26.21 H 127 C4127 0
15209 H 93.2 62.1 26.22 H 127 C4127 0
15210 C1 94.42 62.09 27.88 C.3 127 C4127 0
15211 O2 94.63 60.88 27.85 O.3 127 C4127 0
15212 O3 94.9 62.83 28.91 O.3 127 C4127 0
15213 H5 95.42 62.28 29.49 H 127 C4127 0
15214 C 93.34 64.79 28.01 C.3 127 C4127 0
15215 H 92.68 65.37 28.38 H 127 C4127 0
15216 H 93.91 64.47 28.69 H 127 C4127 0
15217 H 93.86 65.28 27.37 H 127 C4127 0
15218 C 89.58 62.25 29.99 C.3 128 C4128 0
15219 C 90.55 63.15 30.45 C.3 128 C4128 0
15220 H 89.02 62 30.71 H 128 C4128 0
15221 H 91.15 62.7 31.05 H 128 C4128 0
15222 H 90.13 63.87 30.9 H 128 C4128 0
15223 C1 91.35 63.69 29.25 C.3 128 C4128 0
15224 O2 91.56 64.9 29.15 O.3 128 C4128 0
15225 O3 91.83 62.84 28.31 O.3 128 C4128 0
15226 C 90.28 60.99 29.43 C.3 128 C4128 0
15227 H 89.62 60.38 29.12 H 128 C4128 0
15228 H 90.84 61.24 28.71 H 128 C4128 0
15229 H 90.79 60.58 30.11 H 128 C4128 0
15230 C 86.52 63.31 27.17 C.3 128 C4128 0
15231 C 87.49 62.36 26.81 C.3 128 C4128 0
15232 H 85.95 63.47 26.42 H 128 C4128 0
15233 H 88.08 62.74 26.17 H 128 C4128 0
15234 H 87.06 61.6 26.44 H 128 C4128 0
15235 C1 88.28 61.95 28.07 C.3 128 C4128 0
15236 O2 88.49 60.76 28.3 O.3 128 C4128 0
15237 O3 88.76 62.9 28.91 O.3 128 C4128 0
15238 C 87.21 64.62 27.59 C.3 128 C4128 0
15239 H 86.55 65.26 27.83 H 128 C4128 0
15240 H 87.77 64.45 28.34 H 128 C4128 0
15241 H 87.73 64.95 26.87 H 128 C4128 0
15242 C 83.45 62.57 30.09 C.3 128 C4128 0
15243 C 84.42 63.54 30.34 C.3 128 C4128 0
15244 H 82.88 62.48 30.85 H 128 C4128 0
15245 H 85.01 63.24 31.02 H 128 C4128 0
15246 H 84 64.35 30.63 H 128 C4128 0
15247 C1 85.22 63.82 29.05 C.3 128 C4128 0
15248 O2 85.42 64.97 28.69 O.3 128 C4128 0
15249 O3 85.69 62.78 28.32 O.3 128 C4128 0
15250 C 84.14 61.22 29.82 C.3 128 C4128 0
15251 H 83.48 60.55 29.65 H 128 C4128 0
15252 H 84.71 61.3 29.06 H 128 C4128 0
15253 H 84.66 60.97 30.57 H 128 C4128 0
15254 C 80.38 62.98 27.1 C.3 128 C4128 0
15255 C 81.35 61.98 26.97 C.3 128 C4128 0
15256 H 79.82 62.98 26.34 H 128 C4128 0
15257 H 81.94 62.21 26.26 H 128 C4128 0
15258 H 80.93 61.15 26.77 H 128 C4128 0
15259 C1 82.15 61.85 28.28 C.3 128 C4128 0
15260 O2 82.36 60.74 28.77 O.3 128 C4128 0
15261 O3 82.63 62.97 28.89 O.3 128 C4128 0
15262 C 81.07 64.35 27.23 C.3 128 C4128 0
15263 H 80.41 65.03 27.33 H 128 C4128 0
15264 H 81.64 64.35 27.99 H 128 C4128 0
15265 H 81.59 64.52 26.45 H 128 C4128 0
15266 C 77.31 62.9 30.12 C.3 128 C4128 0
15267 C 78.28 63.91 30.15 C.3 128 C4128 0
15268 H 76.75 62.98 30.88 H 128 C4128 0
15269 H 78.88 63.76 30.88 H 128 C4128 0
15270 H 77.86 64.75 30.25 H 128 C4128 0
15271 C1 79.08 63.89 28.83 C.3 128 C4128 0
15272 O2 79.29 64.94 28.22 O.3 128 C4128 0
15273 O3 79.56 62.71 28.34 O.3 128 C4128 0
15274 C 78.01 61.52 30.15 C.3 128 C4128 0
15275 H 77.35 60.84 30.13 H 128 C4128 0
15276 H 78.57 61.44 29.39 H 128 C4128 0
15277 H 78.52 61.44 30.94 H 128 C4128 0
15278 C 74.25 62.65 27.11 C.3 128 C4128 0
15279 C 75.22 61.64 27.2 C.3 128 C4128 0
15280 H 73.68 62.48 26.37 H 128 C4128 0
15281 H 75.81 61.7 26.46 H 128 C4128 0
15282 H 74.79 60.79 27.19 H 128 C4128 0
15283 C1 76.01 61.8 28.51 C.3 128 C4128 0
15284 O2 76.22 60.83 29.23 O.3 128 C4128 0
15285 O3 76.49 63.03 28.86 O.3 128 C4128 0
15286 C 74.94 64.01 26.94 C.3 128 C4128 0
15287 H 74.28 64.69 26.88 H 128 C4128 0
15288 H 75.5 64.18 27.68 H 128 C4128 0
15289 H 75.46 64 26.14 H 128 C4128 0
15290 C 71.18 63.23 30.08 C.3 128 C4128 0
15291 C 72.15 64.22 29.88 C.3 128 C4128 0
15292 H 70.61 63.48 30.8 H 128 C4128 0
15293 H 72.74 64.24 30.62 H 128 C4128 0
15294 H 71.73 65.07 29.79 H 128 C4128 0
15295 C1 72.95 63.91 28.6 C.3 128 C4128 0
15296 O2 73.15 64.8 27.77 O.3 128 C4128 0
15297 O3 73.42 62.66 28.38 O.3 128 C4128 0
15298 C 71.87 61.89 30.4 C.3 128 C4128 0
15299 H 71.21 61.22 30.54 H 128 C4128 0
15300 H 72.44 61.65 29.68 H 128 C4128 0
15301 H 72.39 61.99 31.19 H 128 C4128 0
15302 C 68.11 62.32 27.2 C.3 128 C4128 0
15303 C 69.08 61.36 27.5 C.3 128 C4128 0
15304 H 67.55 61.99 26.51 H 128 C4128 0
15305 H 69.67 61.26 26.76 H 128 C4128 0
15306 H 68.66 60.53 27.68 H 128 C4128 0
15307 C1 69.88 61.81 28.74 C.3 128 C4128 0
15308 O2 70.09 61.02 29.66 O.3 128 C4128 0
15309 O3 70.36 63.08 28.82 O.3 128 C4128 0
15310 C 68.8 63.61 26.72 C.3 128 C4128 0
15311 H 68.14 64.27 26.52 H 128 C4128 0
15312 H 69.37 63.94 27.41 H 128 C4128 0
15313 H 69.32 63.43 25.95 H 128 C4128 0
15314 C 65.04 63.54 29.96 C.3 128 C4128 0
15315 C 66.01 64.47 29.55 C.3 128 C4128 0
15316 H 64.48 63.95 30.61 H 128 C4128 0
15317 H 66.6 64.65 30.27 H 128 C4128 0
15318 H 65.59 65.27 29.28 H 128 C4128 0
15319 C1 66.81 63.89 28.37 C.3 128 C4128 0
15320 O2 67.02 64.57 27.37 O.3 128 C4128 0
15321 O3 67.29 62.61 28.43 O.3 128 C4128 0
15322 C 65.74 62.31 30.57 C.3 128 C4128 0
15323 H 65.08 61.69 30.85 H 128 C4128 0
15324 H 66.3 61.91 29.92 H 128 C4128 0
15325 H 66.25 62.58 31.32 H 128 C4128 0
15326 C 61.98 62.03 27.35 C.3 128 C4128 0
15327 C 62.95 61.15 27.86 C.3 128 C4128 0
15328 H 61.41 61.55 26.75 H 128 C4128 0
15329 H 63.54 60.89 27.16 H 128 C4128 0
15330 H 62.52 60.38 28.22 H 128 C4128 0
15331 C1 63.74 61.86 28.97 C.3 128 C4128 0
15332 O2 63.95 61.29 30.04 O.3 128 C4128 0
15333 O3 64.22 63.12 28.77 O.3 128 C4128 0
15334 C 62.67 63.18 26.6 C.3 128 C4128 0
15335 H 62.01 63.77 26.26 H 128 C4128 0
15336 H 63.23 63.65 27.2 H 128 C4128 0
15337 H 63.19 62.83 25.89 H 128 C4128 0
15338 C 58.91 63.82 29.77 C.3 128 C4128 0
15339 C 59.88 64.63 29.17 C.3 128 C4128 0
15340 H 58.34 64.36 30.32 H 128 C4128 0
15341 H 60.47 64.97 29.84 H 128 C4128 0
15342 H 59.46 65.36 28.73 H 128 C4128 0
15343 C1 60.68 63.81 28.15 C.3 128 C4128 0
15344 O2 60.88 64.26 27.02 O.3 128 C4128 0
15345 O3 61.15 62.58 28.49 O.3 128 C4128 0
15346 C 59.6 62.76 30.64 C.3 128 C4128 0
15347 H 58.94 62.21 31.05 H 128 C4128 0
15348 H 60.17 62.22 30.1 H 128 C4128 0
15349 H 60.12 63.18 31.32 H 128 C4128 0
15350 C 55.84 61.77 27.56 C.3 128 C4128 0
15351 C 56.81 61.03 28.25 C.3 128 C4128 0
15352 H 55.27 61.18 27.08 H 128 C4128 0
15353 H 57.4 60.62 27.63 H 128 C4128 0
15354 H 56.39 60.36 28.77 H 128 C4128 0
15355 C1 57.61 61.96 29.18 C.3 128 C4128 0
15356 O2 57.81 61.64 30.35 O.3 128 C4128 0
15357 O3 58.09 63.15 28.7 O.3 128 C4128 0
15358 C 56.53 62.73 26.58 C.3 128 C4128 0
15359 H 55.87 63.24 26.12 H 128 C4128 0
15360 H 57.1 63.32 27.06 H 128 C4128 0
15361 H 57.05 62.24 25.96 H 128 C4128 0
15362 C 52.77 64.06 29.53 C.3 128 C4128 0
15363 C 53.74 64.72 28.77 C.3 128 C4128 0
15364 H 52.21 64.7 29.95 H 128 C4128 0
15365 H 54.33 65.19 29.34 H 128 C4128 0
15366 H 53.32 65.33 28.18 H 128 C4128 0
15367 C1 54.54 63.68 27.95 C.3 128 C4128 0
15368 O2 54.75 63.87 26.75 O.3 128 C4128 0
15369 O3 55.02 62.56 28.55 O.3 128 C4128 0
15370 C 53.46 63.21 30.62 C.3 128 C4128 0
15371 H 52.81 62.76 31.13 H 128 C4128 0
15372 H 54.03 62.57 30.2 H 128 C4128 0
15373 H 53.98 63.77 31.18 H 128 C4128 0
15374 C 49.71 61.57 27.83 C.3 128 C4128 0
15375 C 50.68 60.99 28.66 C.3 128 C4128 0
15376 H 49.14 60.88 27.49 H 128 C4128 0
15377 H 51.27 60.46 28.14 H 128 C4128 0
15378 H 50.25 60.45 29.32 H 128 C4128 0
15379 C1 51.47 62.11 29.36 C.3 128 C4128 0
15380 O2 51.68 62.06 30.57 O.3 128 C4128 0
15381 O3 51.95 63.16 28.64 O.3 128 C4128 0
15382 C 50.4 62.29 26.66 C.3 128 C4128 0
15383 H 49.74 62.68 26.09 H 128 C4128 0
15384 H 50.96 62.97 27 H 128 C4128 0
15385 H 50.91 61.67 26.16 H 128 C4128 0
15386 C 46.64 64.23 29.25 C.3 128 C4128 0
15387 C 47.61 64.71 28.36 C.3 128 C4128 0
15388 H 46.07 64.95 29.51 H 128 C4128 0
15389 H 48.2 65.29 28.81 H 128 C4128 0
15390 H 47.19 65.17 27.65 H 128 C4128 0
15391 C1 48.41 63.52 27.79 C.3 128 C4128 0
15392 O2 48.61 63.44 26.58 O.3 128 C4128 0
15393 O3 48.88 62.55 28.62 O.3 128 C4128 0
15394 C 47.33 63.64 30.49 C.3 128 C4128 0
15395 H 46.67 63.32 31.09 H 128 C4128 0
15396 H 47.9 62.92 30.23 H 128 C4128 0
15397 H 47.85 64.31 30.91 H 128 C4128 0
15398 C 43.57 61.43 28.13 C.3 128 C4128 0
15399 C 44.54 61.05 29.07 C.3 128 C4128 0
15400 H 43.01 60.68 27.95 H 128 C4128 0
15401 H 45.13 60.42 28.68 H 128 C4128 0
15402 H 44.12 60.67 29.83 H 128 C4128 0
15403 C1 45.34 62.3 29.51 C.3 128 C4128 0
15404 O2 45.54 62.51 30.7 O.3 128 C4128 0
15405 O3 45.82 63.16 28.57 O.3 128 C4128 0
15406 C 44.26 61.88 26.83 C.3 128 C4128 0
15407 H 43.6 62.13 26.2 H 128 C4128 0
15408 H 44.83 62.62 27.01 H 128 C4128 0
15409 H 44.78 61.16 26.48 H 128 C4128 0
15410 C 40.5 64.34 28.93 C.3 128 C4128 0
15411 C 41.47 64.6 27.96 C.3 128 C4128 0
15412 H 39.94 65.09 29.03 H 128 C4128 0
15413 H 42.06 65.28 28.27 H 128 C4128 0
15414 H 41.05 64.9 27.16 H 128 C4128 0
15415 C1 42.27 63.32 27.66 C.3 128 C4128 0
15416 O2 42.48 62.98 26.5 O.3 128 C4128 0
15417 O3 42.75 62.56 28.69 O.3 128 C4128 0
15418 C 41.19 64.03 30.27 C.3 128 C4128 0
15419 H 40.54 63.85 30.93 H 128 C4128 0
15420 H 41.76 63.28 30.17 H 128 C4128 0
15421 H 41.71 64.78 30.54 H 128 C4128 0
15422 C 37.44 61.36 28.46 C.3 128 C4128 0
15423 C 38.41 61.2 29.46 C.3 128 C4128 0
15424 H 36.87 60.59 28.45 H 128 C4128 0
15425 H 39 60.49 29.22 H 128 C4128 0
15426 H 37.98 60.99 30.28 H 128 C4128 0
15427 C1 39.2 62.51 29.61 C.3 128 C4128 0
15428 O2 39.41 62.98 30.73 O.3 128 C4128 0
15429 O3 39.68 63.15 28.51 O.3 128 C4128 0
15430 C 38.13 61.51 27.09 C.3 128 C4128 0
15431 H 37.47 61.62 26.42 H 128 C4128 0
15432 H 38.69 62.27 27.11 H 128 C4128 0
15433 H 38.64 60.73 26.91 H 128 C4128 0
15434 C 34.37 64.37 28.6 C.3 128 C4128 0
15435 C 35.34 64.42 27.59 C.3 128 C4128 0
15436 H 33.8 65.13 28.53 H 128 C4128 0
15437 H 35.93 65.14 27.75 H 128 C4128 0
15438 H 34.91 64.53 26.75 H 128 C4128 0
15439 C1 36.14 63.1 27.58 C.3 128 C4128 0
15440 O2 36.34 62.51 26.52 O.3 128 C4128 0
15441 O3 36.61 62.59 28.75 O.3 128 C4128 0
15442 C 35.06 64.37 29.97 C.3 128 C4128 0
15443 H 34.4 64.34 30.66 H 128 C4128 0
15444 H 35.62 63.61 30.04 H 128 C4128 0
15445 H 35.58 65.16 30.07 H 128 C4128 0
15446 C 31.3 61.36 28.8 C.3 128 C4128 0
15447 C 32.27 61.43 29.8 C.3 128 C4128 0
15448 H 30.73 60.61 28.95 H 128 C4128 0
15449 H 32.86 60.68 29.72 H 128 C4128 0
15450 H 31.85 61.4 30.65 H 128 C4128 0
15451 C1 33.07 62.74 29.66 C.3 128 C4128 0
15452 O2 33.27 63.44 30.65 O.3 128 C4128 0
15453 O3 33.54 63.11 28.45 O.3 128 C4128 0
15454 C 31.99 61.21 27.43 C.3 128 C4128 0
15455 H 31.33 61.16 26.74 H 128 C4128 0
15456 H 32.56 61.96 27.27 H 128 C4128 0
15457 H 32.51 60.41 27.42 H 128 C4128 0
15458 C 28.23 64.33 28.27 C.3 128 C4128 0
15459 C 29.2 64.16 27.27 C.3 128 C4128 0
15460 H 27.67 65.06 28.03 H 128 C4128 0
15461 H 29.79 64.9 27.27 H 128 C4128 0
15462 H 28.78 64.08 26.43 H 128 C4128 0
15463 C1 30 62.87 27.56 C.3 128 C4128 0
15464 O2 30.21 62.06 26.65 O.3 128 C4128 0
15465 O3 30.48 62.63 28.81 O.3 128 C4128 0
15466 C 28.92 64.63 29.61 C.3 128 C4128 0
15467 H 28.27 64.75 30.28 H 128 C4128 0
15468 H 29.49 63.91 29.84 H 128 C4128 0
15469 H 29.44 65.43 29.53 H 128 C4128 0
15470 C 25.17 61.44 29.12 C.3 128 C4128 0
15471 C 26.14 61.72 30.09 C.3 128 C4128 0
15472 H 24.6 60.74 29.44 H 128 C4128 0
15473 H 26.73 60.98 30.17 H 128 C4128 0
15474 H 25.71 61.89 30.92 H 128 C4128 0
15475 C1 26.93 62.97 29.66 C.3 128 C4128 0
15476 O2 27.14 63.87 30.47 O.3 128 C4128 0
15477 O3 27.41 63.07 28.4 O.3 128 C4128 0
15478 C 25.86 60.99 27.82 C.3 128 C4128 0
15479 H 25.2 60.8 27.16 H 128 C4128 0
15480 H 26.42 61.68 27.51 H 128 C4128 0
15481 H 26.37 60.21 27.99 H 128 C4128 0
15482 C 22.1 64.22 27.95 C.3 128 C4128 0
15483 C 23.07 63.83 27.02 C.3 128 C4128 0
15484 H 21.53 64.88 27.56 H 128 C4128 0
15485 H 23.66 64.55 26.85 H 128 C4128 0
15486 H 22.64 63.57 26.21 H 128 C4128 0
15487 C1 23.87 62.64 27.58 C.3 128 C4128 0
15488 O2 24.07 61.65 26.88 O.3 128 C4128 0
15489 O3 24.34 62.67 28.85 O.3 128 C4128 0
15490 C 22.79 64.81 29.2 C.3 128 C4128 0
15491 H 22.13 65.08 29.83 H 128 C4128 0
15492 H 23.35 64.15 29.58 H 128 C4128 0
15493 H 23.31 65.57 28.94 H 128 C4128 0
15494 C 19.03 61.58 29.42 C.3 128 C4128 0
15495 C 20 62.08 30.3 C.3 128 C4128 0
15496 H 18.46 60.98 29.88 H 128 C4128 0
15497 H 20.59 61.37 30.55 H 128 C4128 0
15498 H 19.58 62.42 31.08 H 128 C4128 0
15499 C1 20.8 63.2 29.61 C.3 128 C4128 0
15500 O2 21 64.26 30.21 O.3 128 C4128 0
15501 O3 21.27 63.02 28.35 O.3 128 C4128 0
15502 C 19.72 60.86 28.25 C.3 128 C4128 0
15503 H 19.06 60.53 27.65 H 128 C4128 0
15504 H 20.29 61.47 27.79 H 128 C4128 0
15505 H 20.24 60.14 28.59 H 128 C4128 0
15506 C 15.96 64.04 27.67 C.3 128 C4128 0
15507 C 16.93 63.46 26.85 C.3 128 C4128 0
15508 H 15.4 64.6 27.15 H 128 C4128 0
15509 H 17.52 64.13 26.53 H 128 C4128 0
15510 H 16.51 63.03 26.11 H 128 C4128 0
15511 C1 17.73 62.42 27.66 C.3 128 C4128 0
15512 O2 17.94 61.3 27.19 O.3 128 C4128 0
15513 O3 18.21 62.73 28.89 O.3 128 C4128 0
15514 C 16.65 64.89 28.75 C.3 128 C4128 0
15515 H 16 65.29 29.31 H 128 C4128 0
15516 H 17.22 64.34 29.28 H 128 C4128 0
15517 H 17.17 65.57 28.34 H 128 C4128 0
15518 C 12.89 61.79 29.68 C.3 128 C4128 0
15519 C 13.87 62.47 30.44 C.3 128 C4128 0
15520 H 12.33 61.3 30.26 H 128 C4128 0
15521 H 14.45 61.84 30.83 H 128 C4128 0
15522 H 13.44 62.97 31.12 H 128 C4128 0
15523 C1 14.66 63.41 29.52 C.3 128 C4128 0
15524 O2 14.87 64.58 29.86 O.3 128 C4128 0
15525 O3 15.14 62.96 28.33 O.3 128 C4128 0
15526 C 13.59 60.83 28.7 C.3 128 C4128 0
15527 H 12.93 60.37 28.19 H 128 C4128 0
15528 H 14.15 61.32 28.12 H 128 C4128 0
15529 H 14.1 60.2 29.19 H 128 C4128 0
15530 C 9.83 63.81 27.43 C.3 128 C4128 0
15531 C 10.8 63.05 26.76 C.3 128 C4128 0
15532 H 9.26 64.23 26.8 H 128 C4128 0
15533 H 11.39 63.64 26.3 H 128 C4128 0
15534 H 10.37 62.47 26.14 H 128 C4128 0
15535 C1 11.59 62.22 27.78 C.3 128 C4128 0
15536 O2 11.8 61.02 27.56 O.3 128 C4128 0
15537 O3 12.07 62.8 28.91 O.3 128 C4128 0
15538 C 10.52 64.87 28.3 C.3 128 C4128 0
15539 H 9.86 65.38 28.76 H 128 C4128 0
15540 H 11.08 64.45 28.94 H 128 C4128 0
15541 H 11.04 65.45 27.75 H 128 C4128 0
15542 C 6.76 62.06 29.89 C.3 128 C4128 0
15543 C 7.73 62.88 30.48 C.3 128 C4128 0
15544 H 6.19 61.7 30.57 H 128 C4128 0
15545 H 8.32 62.35 31 H 128 C4128 0
15546 H 7.31 63.52 31.03 H 128 C4128 0
15547 C1 8.53 63.6 29.37 C.3 128 C4128 0
15548 O2 8.73 64.81 29.45 O.3 128 C4128 0
15549 O3 9 62.9 28.31 O.3 128 C4128 0
15550 C 7.45 60.9 29.14 C.3 128 C4128 0
15551 H 6.79 60.34 28.75 H 128 C4128 0
15552 H 8.02 61.25 28.47 H 128 C4128 0
15553 H 7.97 60.39 29.76 H 128 C4128 0
15554 H 3.17 63.09 27.92 H 129 C4129 0
15555 C 3.69 63.52 27.25 C.3 129 C4129 0
15556 C 4.66 62.64 26.76 C.3 129 C4129 0
15557 H 3.13 63.8 26.54 H 129 C4129 0
15558 H 5.25 63.11 26.19 H 129 C4129 0
15559 H 4.24 61.94 26.28 H 129 C4129 0
15560 C1 5.46 62.05 27.94 C.3 129 C4129 0
15561 O2 5.67 60.84 28 O.3 129 C4129 0
15562 O3 5.94 62.86 28.92 O.3 129 C4129 0
15563 C 4.38 64.76 27.87 C.3 129 C4129 0
15564 H 3.72 65.35 28.2 H 129 C4129 0
15565 H 4.95 64.48 28.58 H 129 C4129 0
15566 H 4.9 65.19 27.2 H 129 C4129 0
15567 C 92.65 63.61 38.73 C.3 130 C4130 0
15568 C 93.62 62.77 38.18 C.3 130 C4130 0
15569 H 92.09 63.94 38.04 H 130 C4130 0
15570 H 94.21 63.28 37.64 H 130 C4130 0
15571 H 93.2 62.1 37.65 H 130 C4130 0
15572 C1 94.42 62.09 39.31 C.3 130 C4130 0
15573 O2 94.63 60.88 39.28 O.3 130 C4130 0
15574 O3 94.9 62.83 40.34 O.3 130 C4130 0
15575 H5 95.42 62.28 40.92 H 130 C4130 0
15576 C 93.34 64.79 39.44 C.3 130 C4130 0
15577 H 92.68 65.37 39.81 H 130 C4130 0
15578 H 93.91 64.47 40.12 H 130 C4130 0
15579 H 93.86 65.28 38.8 H 130 C4130 0
15580 C 89.58 62.25 41.42 C.3 131 C4131 0
15581 C 90.55 63.15 41.88 C.3 131 C4131 0
15582 H 89.02 62 42.14 H 131 C4131 0
15583 H 91.15 62.7 42.48 H 131 C4131 0
15584 H 90.13 63.87 42.33 H 131 C4131 0
15585 C1 91.35 63.69 40.68 C.3 131 C4131 0
15586 O2 91.56 64.9 40.58 O.3 131 C4131 0
15587 O3 91.83 62.84 39.74 O.3 131 C4131 0
15588 C 90.28 60.99 40.86 C.3 131 C4131 0
15589 H 89.62 60.38 40.55 H 131 C4131 0
15590 H 90.84 61.24 40.14 H 131 C4131 0
15591 H 90.79 60.58 41.54 H 131 C4131 0
15592 C 86.52 63.31 38.6 C.3 131 C4131 0
15593 C 87.49 62.36 38.24 C.3 131 C4131 0
15594 H 85.95 63.47 37.85 H 131 C4131 0
15595 H 88.08 62.74 37.6 H 131 C4131 0
15596 H 87.06 61.6 37.87 H 131 C4131 0
15597 C1 88.28 61.95 39.5 C.3 131 C4131 0
15598 O2 88.49 60.76 39.73 O.3 131 C4131 0
15599 O3 88.76 62.9 40.34 O.3 131 C4131 0
15600 C 87.21 64.62 39.02 C.3 131 C4131 0
15601 H 86.55 65.26 39.26 H 131 C4131 0
15602 H 87.77 64.45 39.77 H 131 C4131 0
15603 H 87.73 64.95 38.3 H 131 C4131 0
15604 C 83.45 62.57 41.52 C.3 131 C4131 0
15605 C 84.42 63.54 41.77 C.3 131 C4131 0
15606 H 82.88 62.48 42.28 H 131 C4131 0
15607 H 85.01 63.24 42.45 H 131 C4131 0
15608 H 84 64.35 42.06 H 131 C4131 0
15609 C1 85.22 63.82 40.48 C.3 131 C4131 0
15610 O2 85.42 64.97 40.12 O.3 131 C4131 0
15611 O3 85.69 62.78 39.75 O.3 131 C4131 0
15612 C 84.14 61.22 41.25 C.3 131 C4131 0
15613 H 83.48 60.55 41.08 H 131 C4131 0
15614 H 84.71 61.3 40.49 H 131 C4131 0
15615 H 84.66 60.97 42 H 131 C4131 0
15616 C 80.38 62.98 38.53 C.3 131 C4131 0
15617 C 81.35 61.98 38.4 C.3 131 C4131 0
15618 H 79.82 62.98 37.77 H 131 C4131 0
15619 H 81.94 62.21 37.69 H 131 C4131 0
15620 H 80.93 61.15 38.2 H 131 C4131 0
15621 C1 82.15 61.85 39.71 C.3 131 C4131 0
15622 O2 82.36 60.74 40.2 O.3 131 C4131 0
15623 O3 82.63 62.97 40.32 O.3 131 C4131 0
15624 C 81.07 64.35 38.66 C.3 131 C4131 0
15625 H 80.41 65.03 38.76 H 131 C4131 0
15626 H 81.64 64.35 39.42 H 131 C4131 0
15627 H 81.59 64.52 37.88 H 131 C4131 0
15628 C 77.31 62.9 41.55 C.3 131 C4131 0
15629 C 78.28 63.91 41.58 C.3 131 C4131 0
15630 H 76.75 62.98 42.31 H 131 C4131 0
15631 H 78.88 63.76 42.31 H 131 C4131 0
15632 H 77.86 64.75 41.68 H 131 C4131 0
15633 C1 79.08 63.89 40.26 C.3 131 C4131 0
15634 O2 79.29 64.94 39.65 O.3 131 C4131 0
15635 O3 79.56 62.71 39.77 O.3 131 C4131 0
15636 C 78.01 61.52 41.58 C.3 131 C4131 0
15637 H 77.35 60.84 41.56 H 131 C4131 0
15638 H 78.57 61.44 40.82 H 131 C4131 0
15639 H 78.52 61.44 42.37 H 131 C4131 0
15640 C 74.25 62.65 38.54 C.3 131 C4131 0
15641 C 75.22 61.64 38.63 C.3 131 C4131 0
15642 H 73.68 62.48 37.8 H 131 C4131 0
15643 H 75.81 61.7 37.89 H 131 C4131 0
15644 H 74.79 60.79 38.62 H 131 C4131 0
15645 C1 76.01 61.8 39.94 C.3 131 C4131 0
15646 O2 76.22 60.83 40.66 O.3 131 C4131 0
15647 O3 76.49 63.03 40.29 O.3 131 C4131 0
15648 C 74.94 64.01 38.37 C.3 131 C4131 0
15649 H 74.28 64.69 38.31 H 131 C4131 0
15650 H 75.5 64.18 39.11 H 131 C4131 0
15651 H 75.46 64 37.57 H 131 C4131 0
15652 C 71.18 63.23 41.51 C.3 131 C4131 0
15653 C 72.15 64.22 41.31 C.3 131 C4131 0
15654 H 70.61 63.48 42.23 H 131 C4131 0
15655 H 72.74 64.24 42.05 H 131 C4131 0
15656 H 71.73 65.07 41.22 H 131 C4131 0
15657 C1 72.95 63.91 40.03 C.3 131 C4131 0
15658 O2 73.15 64.8 39.2 O.3 131 C4131 0
15659 O3 73.42 62.66 39.81 O.3 131 C4131 0
15660 C 71.87 61.89 41.83 C.3 131 C4131 0
15661 H 71.21 61.22 41.97 H 131 C4131 0
15662 H 72.44 61.65 41.11 H 131 C4131 0
15663 H 72.39 61.99 42.62 H 131 C4131 0
15664 C 68.11 62.32 38.63 C.3 131 C4131 0
15665 C 69.08 61.36 38.93 C.3 131 C4131 0
15666 H 67.55 61.99 37.94 H 131 C4131 0
15667 H 69.67 61.26 38.19 H 131 C4131 0
15668 H 68.66 60.53 39.11 H 131 C4131 0
15669 C1 69.88 61.81 40.17 C.3 131 C4131 0
15670 O2 70.09 61.02 41.09 O.3 131 C4131 0
15671 O3 70.36 63.08 40.25 O.3 131 C4131 0
15672 C 68.8 63.61 38.15 C.3 131 C4131 0
15673 H 68.14 64.27 37.95 H 131 C4131 0
15674 H 69.37 63.94 38.84 H 131 C4131 0
15675 H 69.32 63.43 37.38 H 131 C4131 0
15676 C 65.04 63.54 41.39 C.3 131 C4131 0
15677 C 66.01 64.47 40.98 C.3 131 C4131 0
15678 H 64.48 63.95 42.04 H 131 C4131 0
15679 H 66.6 64.65 41.7 H 131 C4131 0
15680 H 65.59 65.27 40.71 H 131 C4131 0
15681 C1 66.81 63.89 39.8 C.3 131 C4131 0
15682 O2 67.02 64.57 38.8 O.3 131 C4131 0
15683 O3 67.29 62.61 39.86 O.3 131 C4131 0
15684 C 65.74 62.31 42 C.3 131 C4131 0
15685 H 65.08 61.69 42.28 H 131 C4131 0
15686 H 66.3 61.91 41.35 H 131 C4131 0
15687 H 66.25 62.58 42.75 H 131 C4131 0
15688 C 61.98 62.03 38.78 C.3 131 C4131 0
15689 C 62.95 61.15 39.29 C.3 131 C4131 0
15690 H 61.41 61.55 38.18 H 131 C4131 0
15691 H 63.54 60.89 38.59 H 131 C4131 0
15692 H 62.52 60.38 39.65 H 131 C4131 0
15693 C1 63.74 61.86 40.4 C.3 131 C4131 0
15694 O2 63.95 61.29 41.47 O.3 131 C4131 0
15695 O3 64.22 63.12 40.2 O.3 131 C4131 0
15696 C 62.67 63.18 38.03 C.3 131 C4131 0
15697 H 62.01 63.77 37.69 H 131 C4131 0
15698 H 63.23 63.65 38.63 H 131 C4131 0
15699 H 63.19 62.83 37.32 H 131 C4131 0
15700 C 58.91 63.82 41.2 C.3 131 C4131 0
15701 C 59.88 64.63 40.6 C.3 131 C4131 0
15702 H 58.34 64.36 41.75 H 131 C4131 0
15703 H 60.47 64.97 41.27 H 131 C4131 0
15704 H 59.46 65.36 40.16 H 131 C4131 0
15705 C1 60.68 63.81 39.58 C.3 131 C4131 0
15706 O2 60.88 64.26 38.45 O.3 131 C4131 0
15707 O3 61.15 62.58 39.92 O.3 131 C4131 0
15708 C 59.6 62.76 42.07 C.3 131 C4131 0
15709 H 58.94 62.21 42.48 H 131 C4131 0
15710 H 60.17 62.22 41.53 H 131 C4131 0
15711 H 60.12 63.18 42.75 H 131 C4131 0
15712 C 55.84 61.77 38.99 C.3 131 C4131 0
15713 C 56.81 61.03 39.68 C.3 131 C4131 0
15714 H 55.27 61.18 38.51 H 131 C4131 0
15715 H 57.4 60.62 39.06 H 131 C4131 0
15716 H 56.39 60.36 40.2 H 131 C4131 0
15717 C1 57.61 61.96 40.61 C.3 131 C4131 0
15718 O2 57.81 61.64 41.78 O.3 131 C4131 0
15719 O3 58.09 63.15 40.13 O.3 131 C4131 0
15720 C 56.53 62.73 38.01 C.3 131 C4131 0
15721 H 55.87 63.24 37.55 H 131 C4131 0
15722 H 57.1 63.32 38.49 H 131 C4131 0
15723 H 57.05 62.24 37.39 H 131 C4131 0
15724 C 52.77 64.06 40.96 C.3 131 C4131 0
15725 C 53.74 64.72 40.2 C.3 131 C4131 0
15726 H 52.21 64.7 41.38 H 131 C4131 0
15727 H 54.33 65.19 40.77 H 131 C4131 0
15728 H 53.32 65.33 39.61 H 131 C4131 0
15729 C1 54.54 63.68 39.38 C.3 131 C4131 0
15730 O2 54.75 63.87 38.18 O.3 131 C4131 0
15731 O3 55.02 62.56 39.98 O.3 131 C4131 0
15732 C 53.46 63.21 42.05 C.3 131 C4131 0
15733 H 52.81 62.76 42.56 H 131 C4131 0
15734 H 54.03 62.57 41.63 H 131 C4131 0
15735 H 53.98 63.77 42.61 H 131 C4131 0
15736 C 49.71 61.57 39.26 C.3 131 C4131 0
15737 C 50.68 60.99 40.09 C.3 131 C4131 0
15738 H 49.14 60.88 38.92 H 131 C4131 0
15739 H 51.27 60.46 39.57 H 131 C4131 0
15740 H 50.25 60.45 40.75 H 131 C4131 0
15741 C1 51.47 62.11 40.79 C.3 131 C4131 0
15742 O2 51.68 62.06 42 O.3 131 C4131 0
15743 O3 51.95 63.16 40.07 O.3 131 C4131 0
15744 C 50.4 62.29 38.09 C.3 131 C4131 0
15745 H 49.74 62.68 37.52 H 131 C4131 0
15746 H 50.96 62.97 38.43 H 131 C4131 0
15747 H 50.91 61.67 37.59 H 131 C4131 0
15748 C 46.64 64.23 40.68 C.3 131 C4131 0
15749 C 47.61 64.71 39.79 C.3 131 C4131 0
15750 H 46.07 64.95 40.94 H 131 C4131 0
15751 H 48.2 65.29 40.24 H 131 C4131 0
15752 H 47.19 65.17 39.08 H 131 C4131 0
15753 C1 48.41 63.52 39.22 C.3 131 C4131 0
15754 O2 48.61 63.44 38.01 O.3 131 C4131 0
15755 O3 48.88 62.55 40.05 O.3 131 C4131 0
15756 C 47.33 63.64 41.92 C.3 131 C4131 0
15757 H 46.67 63.32 42.52 H 131 C4131 0
15758 H 47.9 62.92 41.66 H 131 C4131 0
15759 H 47.85 64.31 42.34 H 131 C4131 0
15760 C 43.57 61.43 39.56 C.3 131 C4131 0
15761 C 44.54 61.05 40.5 C.3 131 C4131 0
15762 H 43.01 60.68 39.38 H 131 C4131 0
15763 H 45.13 60.42 40.11 H 131 C4131 0
15764 H 44.12 60.67 41.26 H 131 C4131 0
15765 C1 45.34 62.3 40.94 C.3 131 C4131 0
15766 O2 45.54 62.51 42.13 O.3 131 C4131 0
15767 O3 45.82 63.16 40 O.3 131 C4131 0
15768 C 44.26 61.88 38.26 C.3 131 C4131 0
15769 H 43.6 62.13 37.63 H 131 C4131 0
15770 H 44.83 62.62 38.44 H 131 C4131 0
15771 H 44.78 61.16 37.91 H 131 C4131 0
15772 C 40.5 64.34 40.36 C.3 131 C4131 0
15773 C 41.47 64.6 39.39 C.3 131 C4131 0
15774 H 39.94 65.09 40.46 H 131 C4131 0
15775 H 42.06 65.28 39.7 H 131 C4131 0
15776 H 41.05 64.9 38.59 H 131 C4131 0
15777 C1 42.27 63.32 39.09 C.3 131 C4131 0
15778 O2 42.48 62.98 37.93 O.3 131 C4131 0
15779 O3 42.75 62.56 40.12 O.3 131 C4131 0
15780 C 41.19 64.03 41.7 C.3 131 C4131 0
15781 H 40.54 63.85 42.36 H 131 C4131 0
15782 H 41.76 63.28 41.6 H 131 C4131 0
15783 H 41.71 64.78 41.97 H 131 C4131 0
15784 C 37.44 61.36 39.89 C.3 131 C4131 0
15785 C 38.41 61.2 40.89 C.3 131 C4131 0
15786 H 36.87 60.59 39.88 H 131 C4131 0
15787 H 39 60.49 40.65 H 131 C4131 0
15788 H 37.98 60.99 41.71 H 131 C4131 0
15789 C1 39.2 62.51 41.04 C.3 131 C4131 0
15790 O2 39.41 62.98 42.16 O.3 131 C4131 0
15791 O3 39.68 63.15 39.94 O.3 131 C4131 0
15792 C 38.13 61.51 38.52 C.3 131 C4131 0
15793 H 37.47 61.62 37.85 H 131 C4131 0
15794 H 38.69 62.27 38.54 H 131 C4131 0
15795 H 38.64 60.73 38.34 H 131 C4131 0
15796 C 34.37 64.37 40.03 C.3 131 C4131 0
15797 C 35.34 64.42 39.02 C.3 131 C4131 0
15798 H 33.8 65.13 39.96 H 131 C4131 0
15799 H 35.93 65.14 39.18 H 131 C4131 0
15800 H 34.91 64.53 38.18 H 131 C4131 0
15801 C1 36.14 63.1 39.01 C.3 131 C4131 0
15802 O2 36.34 62.51 37.95 O.3 131 C4131 0
15803 O3 36.61 62.59 40.18 O.3 131 C4131 0
15804 C 35.06 64.37 41.4 C.3 131 C4131 0
15805 H 34.4 64.34 42.09 H 131 C4131 0
15806 H 35.62 63.61 41.47 H 131 C4131 0
15807 H 35.58 65.16 41.5 H 131 C4131 0
15808 C 31.3 61.36 40.23 C.3 131 C4131 0
15809 C 32.27 61.43 41.23 C.3 131 C4131 0
15810 H 30.73 60.61 40.38 H 131 C4131 0
15811 H 32.86 60.68 41.15 H 131 C4131 0
15812 H 31.85 61.4 42.08 H 131 C4131 0
15813 C1 33.07 62.74 41.09 C.3 131 C4131 0
15814 O2 33.27 63.44 42.08 O.3 131 C4131 0
15815 O3 33.54 63.11 39.88 O.3 131 C4131 0
15816 C 31.99 61.21 38.86 C.3 131 C4131 0
15817 H 31.33 61.16 38.17 H 131 C4131 0
15818 H 32.56 61.96 38.7 H 131 C4131 0
15819 H 32.51 60.41 38.85 H 131 C4131 0
15820 C 28.23 64.33 39.7 C.3 131 C4131 0
15821 C 29.2 64.16 38.7 C.3 131 C4131 0
15822 H 27.67 65.06 39.46 H 131 C4131 0
15823 H 29.79 64.9 38.7 H 131 C4131 0
15824 H 28.78 64.08 37.86 H 131 C4131 0
15825 C1 30 62.87 38.99 C.3 131 C4131 0
15826 O2 30.21 62.06 38.08 O.3 131 C4131 0
15827 O3 30.48 62.63 40.24 O.3 131 C4131 0
15828 C 28.92 64.63 41.04 C.3 131 C4131 0
15829 H 28.27 64.75 41.71 H 131 C4131 0
15830 H 29.49 63.91 41.27 H 131 C4131 0
15831 H 29.44 65.43 40.96 H 131 C4131 0
15832 C 25.17 61.44 40.55 C.3 131 C4131 0
15833 C 26.14 61.72 41.52 C.3 131 C4131 0
15834 H 24.6 60.74 40.87 H 131 C4131 0
15835 H 26.73 60.98 41.6 H 131 C4131 0
15836 H 25.71 61.89 42.35 H 131 C4131 0
15837 C1 26.93 62.97 41.09 C.3 131 C4131 0
15838 O2 27.14 63.87 41.9 O.3 131 C4131 0
15839 O3 27.41 63.07 39.83 O.3 131 C4131 0
15840 C 25.86 60.99 39.25 C.3 131 C4131 0
15841 H 25.2 60.8 38.59 H 131 C4131 0
15842 H 26.42 61.68 38.94 H 131 C4131 0
15843 H 26.37 60.21 39.42 H 131 C4131 0
15844 C 22.1 64.22 39.38 C.3 131 C4131 0
15845 C 23.07 63.83 38.45 C.3 131 C4131 0
15846 H 21.53 64.88 38.99 H 131 C4131 0
15847 H 23.66 64.55 38.28 H 131 C4131 0
15848 H 22.64 63.57 37.64 H 131 C4131 0
15849 C1 23.87 62.64 39.01 C.3 131 C4131 0
15850 O2 24.07 61.65 38.31 O.3 131 C4131 0
15851 O3 24.34 62.67 40.28 O.3 131 C4131 0
15852 C 22.79 64.81 40.63 C.3 131 C4131 0
15853 H 22.13 65.08 41.26 H 131 C4131 0
15854 H 23.35 64.15 41.01 H 131 C4131 0
15855 H 23.31 65.57 40.37 H 131 C4131 0
15856 C 19.03 61.58 40.85 C.3 131 C4131 0
15857 C 20 62.08 41.73 C.3 131 C4131 0
15858 H 18.46 60.98 41.31 H 131 C4131 0
15859 H 20.59 61.37 41.98 H 131 C4131 0
15860 H 19.58 62.42 42.51 H 131 C4131 0
15861 C1 20.8 63.2 41.04 C.3 131 C4131 0
15862 O2 21 64.26 41.64 O.3 131 C4131 0
15863 O3 21.27 63.02 39.78 O.3 131 C4131 0
15864 C 19.72 60.86 39.68 C.3 131 C4131 0
15865 H 19.06 60.53 39.08 H 131 C4131 0
15866 H 20.29 61.47 39.22 H 131 C4131 0
15867 H 20.24 60.14 40.02 H 131 C4131 0
15868 C 15.96 64.04 39.1 C.3 131 C4131 0
15869 C 16.93 63.46 38.28 C.3 131 C4131 0
15870 H 15.4 64.6 38.58 H 131 C4131 0
15871 H 17.52 64.13 37.96 H 131 C4131 0
15872 H 16.51 63.03 37.54 H 131 C4131 0
15873 C1 17.73 62.42 39.09 C.3 131 C4131 0
15874 O2 17.94 61.3 38.62 O.3 131 C4131 0
15875 O3 18.21 62.73 40.32 O.3 131 C4131 0
15876 C 16.65 64.89 40.18 C.3 131 C4131 0
15877 H 16 65.29 40.74 H 131 C4131 0
15878 H 17.22 64.34 40.71 H 131 C4131 0
15879 H 17.17 65.57 39.77 H 131 C4131 0
15880 C 12.89 61.79 41.11 C.3 131 C4131 0
15881 C 13.87 62.47 41.87 C.3 131 C4131 0
15882 H 12.33 61.3 41.69 H 131 C4131 0
15883 H 14.45 61.84 42.26 H 131 C4131 0
15884 H 13.44 62.97 42.55 H 131 C4131 0
15885 C1 14.66 63.41 40.95 C.3 131 C4131 0
15886 O2 14.87 64.58 41.29 O.3 131 C4131 0
15887 O3 15.14 62.96 39.76 O.3 131 C4131 0
15888 C 13.59 60.83 40.13 C.3 131 C4131 0
15889 H 12.93 60.37 39.62 H 131 C4131 0
15890 H 14.15 61.32 39.55 H 131 C4131 0
15891 H 14.1 60.2 40.62 H 131 C4131 0
15892 C 9.83 63.81 38.86 C.3 131 C4131 0
15893 C 10.8 63.05 38.19 C.3 131 C4131 0
15894 H 9.26 64.23 38.23 H 131 C4131 0
15895 H 11.39 63.64 37.73 H 131 C4131 0
15896 H 10.37 62.47 37.57 H 131 C4131 0
15897 C1 11.59 62.22 39.21 C.3 131 C4131 0
15898 O2 11.8 61.02 38.99 O.3 131 C4131 0
15899 O3 12.07 62.8 40.34 O.3 131 C4131 0
15900 C 10.52 64.87 39.73 C.3 131 C4131 0
15901 H 9.86 65.38 40.19 H 131 C4131 0
15902 H 11.08 64.45 40.37 H 131 C4131 0
15903 H 11.04 65.45 39.18 H 131 C4131 0
15904 C 6.76 62.06 41.32 C.3 131 C4131 0
15905 C 7.73 62.88 41.91 C.3 131 C4131 0
15906 H 6.19 61.7 42 H 131 C4131 0
15907 H 8.32 62.35 42.43 H 131 C4131 0
15908 H 7.31 63.52 42.46 H 131 C4131 0
15909 C1 8.53 63.6 40.8 C.3 131 C4131 0
15910 O2 8.73 64.81 40.88 O.3 131 C4131 0
15911 O3 9 62.9 39.74 O.3 131 C4131 0
15912 C 7.45 60.9 40.57 C.3 131 C4131 0
15913 H 6.79 60.34 40.18 H 131 C4131 0
15914 H 8.02 61.25 39.9 H 131 C4131 0
15915 H 7.97 60.39 41.19 H 131 C4131 0
15916 H 3.17 63.09 39.35 H 132 C4132 0
15917 C 3.69 63.52 38.68 C.3 132 C4132 0
15918 C 4.66 62.64 38.19 C.3 132 C4132 0
15919 H 3.13 63.8 37.97 H 132 C4132 0
15920 H 5.25 63.11 37.62 H 132 C4132 0
15921 H 4.24 61.94 37.71 H 132 C4132 0
15922 C1 5.46 62.05 39.37 C.3 132 C4132 0
15923 O2 5.67 60.84 39.43 O.3 132 C4132 0
15924 O3 5.94 62.86 40.35 O.3 132 C4132 0
15925 C 4.38 64.76 39.3 C.3 132 C4132 0
15926 H 3.72 65.35 39.63 H 132 C4132 0
15927 H 4.95 64.48 40.01 H 132 C4132 0
15928 H 4.9 65.19 38.63 H 132 C4132 0
15929 C 92.65 63.61 50.17 C.3 133 C4133 0
15930 C 93.62 62.77 49.62 C.3 133 C4133 0
15931 H 92.09 63.94 49.48 H 133 C4133 0
15932 H 94.21 63.28 49.08 H 133 C4133 0
15933 H 93.2 62.1 49.09 H 133 C4133 0
15934 C1 94.42 62.09 50.75 C.3 133 C4133 0
15935 O2 94.63 60.88 50.72 O.3 133 C4133 0
15936 O3 94.9 62.83 51.78 O.3 133 C4133 0
15937 H5 95.42 62.28 52.36 H 133 C4133 0
15938 C 93.34 64.79 50.88 C.3 133 C4133 0
15939 H 92.68 65.37 51.25 H 133 C4133 0
15940 H 93.91 64.47 51.56 H 133 C4133 0
15941 H 93.86 65.28 50.24 H 133 C4133 0
15942 C 89.58 62.25 52.86 C.3 134 C4134 0
15943 C 90.55 63.15 53.32 C.3 134 C4134 0
15944 H 89.02 62 53.58 H 134 C4134 0
15945 H 91.15 62.7 53.92 H 134 C4134 0
15946 H 90.13 63.87 53.77 H 134 C4134 0
15947 C1 91.35 63.69 52.12 C.3 134 C4134 0
15948 O2 91.56 64.9 52.02 O.3 134 C4134 0
15949 O3 91.83 62.84 51.18 O.3 134 C4134 0
15950 C 90.28 60.99 52.3 C.3 134 C4134 0
15951 H 89.62 60.38 51.99 H 134 C4134 0
15952 H 90.84 61.24 51.58 H 134 C4134 0
15953 H 90.79 60.58 52.98 H 134 C4134 0
15954 C 86.52 63.31 50.04 C.3 134 C4134 0
15955 C 87.49 62.36 49.68 C.3 134 C4134 0
15956 H 85.95 63.47 49.29 H 134 C4134 0
15957 H 88.08 62.74 49.04 H 134 C4134 0
15958 H 87.06 61.6 49.31 H 134 C4134 0
15959 C1 88.28 61.95 50.94 C.3 134 C4134 0
15960 O2 88.49 60.76 51.17 O.3 134 C4134 0
15961 O3 88.76 62.9 51.78 O.3 134 C4134 0
15962 C 87.21 64.62 50.46 C.3 134 C4134 0
15963 H 86.55 65.26 50.7 H 134 C4134 0
15964 H 87.77 64.45 51.21 H 134 C4134 0
15965 H 87.73 64.95 49.74 H 134 C4134 0
15966 C 83.45 62.57 52.96 C.3 134 C4134 0
15967 C 84.42 63.54 53.21 C.3 134 C4134 0
15968 H 82.88 62.48 53.72 H 134 C4134 0
15969 H 85.01 63.24 53.89 H 134 C4134 0
15970 H 84 64.35 53.5 H 134 C4134 0
15971 C1 85.22 63.82 51.92 C.3 134 C4134 0
15972 O2 85.42 64.97 51.56 O.3 134 C4134 0
15973 O3 85.69 62.78 51.19 O.3 134 C4134 0
15974 C 84.14 61.22 52.69 C.3 134 C4134 0
15975 H 83.48 60.55 52.52 H 134 C4134 0
15976 H 84.71 61.3 51.93 H 134 C4134 0
15977 H 84.66 60.97 53.44 H 134 C4134 0
15978 C 80.38 62.98 49.97 C.3 134 C4134 0
15979 C 81.35 61.98 49.84 C.3 134 C4134 0
15980 H 79.82 62.98 49.21 H 134 C4134 0
15981 H 81.94 62.21 49.13 H 134 C4134 0
15982 H 80.93 61.15 49.64 H 134 C4134 0
15983 C1 82.15 61.85 51.15 C.3 134 C4134 0
15984 O2 82.36 60.74 51.64 O.3 134 C4134 0
15985 O3 82.63 62.97 51.76 O.3 134 C4134 0
15986 C 81.07 64.35 50.1 C.3 134 C4134 0
15987 H 80.41 65.03 50.2 H 134 C4134 0
15988 H 81.64 64.35 50.86 H 134 C4134 0
15989 H 81.59 64.52 49.32 H 134 C4134 0
15990 C 77.31 62.9 52.99 C.3 134 C4134 0
15991 C 78.28 63.91 53.02 C.3 134 C4134 0
15992 H 76.75 62.98 53.75 H 134 C4134 0
15993 H 78.88 63.76 53.75 H 134 C4134 0
15994 H 77.86 64.75 53.12 H 134 C4134 0
15995 C1 79.08 63.89 51.7 C.3 134 C4134 0
15996 O2 79.29 64.94 51.09 O.3 134 C4134 0
15997 O3 79.56 62.71 51.21 O.3 134 C4134 0
15998 C 78.01 61.52 53.02 C.3 134 C4134 0
15999 H 77.35 60.84 53 H 134 C4134 0
16000 H 78.57 61.44 52.26 H 134 C4134 0
16001 H 78.52 61.44 53.81 H 134 C4134 0
16002 C 74.25 62.65 49.98 C.3 134 C4134 0
16003 C 75.22 61.64 50.07 C.3 134 C4134 0
16004 H 73.68 62.48 49.24 H 134 C4134 0
16005 H 75.81 61.7 49.33 H 134 C4134 0
16006 H 74.79 60.79 50.06 H 134 C4134 0
16007 C1 76.01 61.8 51.38 C.3 134 C4134 0
16008 O2 76.22 60.83 52.1 O.3 134 C4134 0
16009 O3 76.49 63.03 51.73 O.3 134 C4134 0
16010 C 74.94 64.01 49.81 C.3 134 C4134 0
16011 H 74.28 64.69 49.75 H 134 C4134 0
16012 H 75.5 64.18 50.55 H 134 C4134 0
16013 H 75.46 64 49.01 H 134 C4134 0
16014 C 71.18 63.23 52.95 C.3 134 C4134 0
16015 C 72.15 64.22 52.75 C.3 134 C4134 0
16016 H 70.61 63.48 53.67 H 134 C4134 0
16017 H 72.74 64.24 53.49 H 134 C4134 0
16018 H 71.73 65.07 52.66 H 134 C4134 0
16019 C1 72.95 63.91 51.47 C.3 134 C4134 0
16020 O2 73.15 64.8 50.64 O.3 134 C4134 0
16021 O3 73.42 62.66 51.25 O.3 134 C4134 0
16022 C 71.87 61.89 53.27 C.3 134 C4134 0
16023 H 71.21 61.22 53.41 H 134 C4134 0
16024 H 72.44 61.65 52.55 H 134 C4134 0
16025 H 72.39 61.99 54.06 H 134 C4134 0
16026 C 68.11 62.32 50.07 C.3 134 C4134 0
16027 C 69.08 61.36 50.37 C.3 134 C4134 0
16028 H 67.55 61.99 49.38 H 134 C4134 0
16029 H 69.67 61.26 49.63 H 134 C4134 0
16030 H 68.66 60.53 50.55 H 134 C4134 0
16031 C1 69.88 61.81 51.61 C.3 134 C4134 0
16032 O2 70.09 61.02 52.53 O.3 134 C4134 0
16033 O3 70.36 63.08 51.69 O.3 134 C4134 0
16034 C 68.8 63.61 49.59 C.3 134 C4134 0
16035 H 68.14 64.27 49.39 H 134 C4134 0
16036 H 69.37 63.94 50.28 H 134 C4134 0
16037 H 69.32 63.43 48.82 H 134 C4134 0
16038 C 65.04 63.54 52.83 C.3 134 C4134 0
16039 C 66.01 64.47 52.42 C.3 134 C4134 0
16040 H 64.48 63.95 53.48 H 134 C4134 0
16041 H 66.6 64.65 53.14 H 134 C4134 0
16042 H 65.59 65.27 52.15 H 134 C4134 0
16043 C1 66.81 63.89 51.24 C.3 134 C4134 0
16044 O2 67.02 64.57 50.24 O.3 134 C4134 0
16045 O3 67.29 62.61 51.3 O.3 134 C4134 0
16046 C 65.74 62.31 53.44 C.3 134 C4134 0
16047 H 65.08 61.69 53.72 H 134 C4134 0
16048 H 66.3 61.91 52.79 H 134 C4134 0
16049 H 66.25 62.58 54.19 H 134 C4134 0
16050 C 61.98 62.03 50.22 C.3 134 C4134 0
16051 C 62.95 61.15 50.73 C.3 134 C4134 0
16052 H 61.41 61.55 49.62 H 134 C4134 0
16053 H 63.54 60.89 50.03 H 134 C4134 0
16054 H 62.52 60.38 51.09 H 134 C4134 0
16055 C1 63.74 61.86 51.84 C.3 134 C4134 0
16056 O2 63.95 61.29 52.91 O.3 134 C4134 0
16057 O3 64.22 63.12 51.64 O.3 134 C4134 0
16058 C 62.67 63.18 49.47 C.3 134 C4134 0
16059 H 62.01 63.77 49.13 H 134 C4134 0
16060 H 63.23 63.65 50.07 H 134 C4134 0
16061 H 63.19 62.83 48.76 H 134 C4134 0
16062 C 58.91 63.82 52.64 C.3 134 C4134 0
16063 C 59.88 64.63 52.04 C.3 134 C4134 0
16064 H 58.34 64.36 53.19 H 134 C4134 0
16065 H 60.47 64.97 52.71 H 134 C4134 0
16066 H 59.46 65.36 51.6 H 134 C4134 0
16067 C1 60.68 63.81 51.02 C.3 134 C4134 0
16068 O2 60.88 64.26 49.89 O.3 134 C4134 0
16069 O3 61.15 62.58 51.36 O.3 134 C4134 0
16070 C 59.6 62.76 53.51 C.3 134 C4134 0
16071 H 58.94 62.21 53.92 H 134 C4134 0
16072 H 60.17 62.22 52.97 H 134 C4134 0
16073 H 60.12 63.18 54.19 H 134 C4134 0
16074 C 55.84 61.77 50.43 C.3 134 C4134 0
16075 C 56.81 61.03 51.12 C.3 134 C4134 0
16076 H 55.27 61.18 49.95 H 134 C4134 0
16077 H 57.4 60.62 50.5 H 134 C4134 0
16078 H 56.39 60.36 51.64 H 134 C4134 0
16079 C1 57.61 61.96 52.05 C.3 134 C4134 0
16080 O2 57.81 61.64 53.22 O.3 134 C4134 0
16081 O3 58.09 63.15 51.57 O.3 134 C4134 0
16082 C 56.53 62.73 49.45 C.3 134 C4134 0
16083 H 55.87 63.24 48.99 H 134 C4134 0
16084 H 57.1 63.32 49.93 H 134 C4134 0
16085 H 57.05 62.24 48.83 H 134 C4134 0
16086 C 52.77 64.06 52.4 C.3 134 C4134 0
16087 C 53.74 64.72 51.64 C.3 134 C4134 0
16088 H 52.21 64.7 52.82 H 134 C4134 0
16089 H 54.33 65.19 52.21 H 134 C4134 0
16090 H 53.32 65.33 51.05 H 134 C4134 0
16091 C1 54.54 63.68 50.82 C.3 134 C4134 0
16092 O2 54.75 63.87 49.62 O.3 134 C4134 0
16093 O3 55.02 62.56 51.42 O.3 134 C4134 0
16094 C 53.46 63.21 53.49 C.3 134 C4134 0
16095 H 52.81 62.76 54 H 134 C4134 0
16096 H 54.03 62.57 53.07 H 134 C4134 0
16097 H 53.98 63.77 54.05 H 134 C4134 0
16098 C 49.71 61.57 50.7 C.3 134 C4134 0
16099 C 50.68 60.99 51.53 C.3 134 C4134 0
16100 H 49.14 60.88 50.36 H 134 C4134 0
16101 H 51.27 60.46 51.01 H 134 C4134 0
16102 H 50.25 60.45 52.19 H 134 C4134 0
16103 C1 51.47 62.11 52.23 C.3 134 C4134 0
16104 O2 51.68 62.06 53.44 O.3 134 C4134 0
16105 O3 51.95 63.16 51.51 O.3 134 C4134 0
16106 C 50.4 62.29 49.53 C.3 134 C4134 0
16107 H 49.74 62.68 48.96 H 134 C4134 0
16108 H 50.96 62.97 49.87 H 134 C4134 0
16109 H 50.91 61.67 49.03 H 134 C4134 0
16110 C 46.64 64.23 52.12 C.3 134 C4134 0
16111 C 47.61 64.71 51.23 C.3 134 C4134 0
16112 H 46.07 64.95 52.38 H 134 C4134 0
16113 H 48.2 65.29 51.68 H 134 C4134 0
16114 H 47.19 65.17 50.52 H 134 C4134 0
16115 C1 48.41 63.52 50.66 C.3 134 C4134 0
16116 O2 48.61 63.44 49.45 O.3 134 C4134 0
16117 O3 48.88 62.55 51.49 O.3 134 C4134 0
16118 C 47.33 63.64 53.36 C.3 134 C4134 0
16119 H 46.67 63.32 53.96 H 134 C4134 0
16120 H 47.9 62.92 53.1 H 134 C4134 0
16121 H 47.85 64.31 53.78 H 134 C4134 0
16122 C 43.57 61.43 51 C.3 134 C4134 0
16123 C 44.54 61.05 51.94 C.3 134 C4134 0
16124 H 43.01 60.68 50.82 H 134 C4134 0
16125 H 45.13 60.42 51.55 H 134 C4134 0
16126 H 44.12 60.67 52.7 H 134 C4134 0
16127 C1 45.34 62.3 52.38 C.3 134 C4134 0
16128 O2 45.54 62.51 53.57 O.3 134 C4134 0
16129 O3 45.82 63.16 51.44 O.3 134 C4134 0
16130 C 44.26 61.88 49.7 C.3 134 C4134 0
16131 H 43.6 62.13 49.07 H 134 C4134 0
16132 H 44.83 62.62 49.88 H 134 C4134 0
16133 H 44.78 61.16 49.35 H 134 C4134 0
16134 C 40.5 64.34 51.8 C.3 134 C4134 0
16135 C 41.47 64.6 50.83 C.3 134 C4134 0
16136 H 39.94 65.09 51.9 H 134 C4134 0
16137 H 42.06 65.28 51.14 H 134 C4134 0
16138 H 41.05 64.9 50.03 H 134 C4134 0
16139 C1 42.27 63.32 50.53 C.3 134 C4134 0
16140 O2 42.48 62.98 49.37 O.3 134 C4134 0
16141 O3 42.75 62.56 51.56 O.3 134 C4134 0
16142 C 41.19 64.03 53.14 C.3 134 C4134 0
16143 H 40.54 63.85 53.8 H 134 C4134 0
16144 H 41.76 63.28 53.04 H 134 C4134 0
16145 H 41.71 64.78 53.41 H 134 C4134 0
16146 C 37.44 61.36 51.33 C.3 134 C4134 0
16147 C 38.41 61.2 52.33 C.3 134 C4134 0
16148 H 36.87 60.59 51.32 H 134 C4134 0
16149 H 39 60.49 52.09 H 134 C4134 0
16150 H 37.98 60.99 53.15 H 134 C4134 0
16151 C1 39.2 62.51 52.48 C.3 134 C4134 0
16152 O2 39.41 62.98 53.6 O.3 134 C4134 0
16153 O3 39.68 63.15 51.38 O.3 134 C4134 0
16154 C 38.13 61.51 49.96 C.3 134 C4134 0
16155 H 37.47 61.62 49.29 H 134 C4134 0
16156 H 38.69 62.27 49.98 H 134 C4134 0
16157 H 38.64 60.73 49.78 H 134 C4134 0
16158 C 34.37 64.37 51.47 C.3 134 C4134 0
16159 C 35.34 64.42 50.46 C.3 134 C4134 0
16160 H 33.8 65.13 51.4 H 134 C4134 0
16161 H 35.93 65.14 50.62 H 134 C4134 0
16162 H 34.91 64.53 49.62 H 134 C4134 0
16163 C1 36.14 63.1 50.45 C.3 134 C4134 0
16164 O2 36.34 62.51 49.39 O.3 134 C4134 0
16165 O3 36.61 62.59 51.62 O.3 134 C4134 0
16166 C 35.06 64.37 52.84 C.3 134 C4134 0
16167 H 34.4 64.34 53.53 H 134 C4134 0
16168 H 35.62 63.61 52.91 H 134 C4134 0
16169 H 35.58 65.16 52.94 H 134 C4134 0
16170 C 31.3 61.36 51.67 C.3 134 C4134 0
16171 C 32.27 61.43 52.67 C.3 134 C4134 0
16172 H 30.73 60.61 51.82 H 134 C4134 0
16173 H 32.86 60.68 52.59 H 134 C4134 0
16174 H 31.85 61.4 53.52 H 134 C4134 0
16175 C1 33.07 62.74 52.53 C.3 134 C4134 0
16176 O2 33.27 63.44 53.52 O.3 134 C4134 0
16177 O3 33.54 63.11 51.32 O.3 134 C4134 0
16178 C 31.99 61.21 50.3 C.3 134 C4134 0
16179 H 31.33 61.16 49.61 H 134 C4134 0
16180 H 32.56 61.96 50.14 H 134 C4134 0
16181 H 32.51 60.41 50.29 H 134 C4134 0
16182 C 28.23 64.33 51.14 C.3 134 C4134 0
16183 C 29.2 64.16 50.14 C.3 134 C4134 0
16184 H 27.67 65.06 50.9 H 134 C4134 0
16185 H 29.79 64.9 50.14 H 134 C4134 0
16186 H 28.78 64.08 49.3 H 134 C4134 0
16187 C1 30 62.87 50.43 C.3 134 C4134 0
16188 O2 30.21 62.06 49.52 O.3 134 C4134 0
16189 O3 30.48 62.63 51.68 O.3 134 C4134 0
16190 C 28.92 64.63 52.48 C.3 134 C4134 0
16191 H 28.27 64.75 53.15 H 134 C4134 0
16192 H 29.49 63.91 52.71 H 134 C4134 0
16193 H 29.44 65.43 52.4 H 134 C4134 0
16194 C 25.17 61.44 51.99 C.3 134 C4134 0
16195 C 26.14 61.72 52.96 C.3 134 C4134 0
16196 H 24.6 60.74 52.31 H 134 C4134 0
16197 H 26.73 60.98 53.04 H 134 C4134 0
16198 H 25.71 61.89 53.79 H 134 C4134 0
16199 C1 26.93 62.97 52.53 C.3 134 C4134 0
16200 O2 27.14 63.87 53.34 O.3 134 C4134 0
16201 O3 27.41 63.07 51.27 O.3 134 C4134 0
16202 C 25.86 60.99 50.69 C.3 134 C4134 0
16203 H 25.2 60.8 50.03 H 134 C4134 0
16204 H 26.42 61.68 50.38 H 134 C4134 0
16205 H 26.37 60.21 50.86 H 134 C4134 0
16206 C 22.1 64.22 50.82 C.3 134 C4134 0
16207 C 23.07 63.83 49.89 C.3 134 C4134 0
16208 H 21.53 64.88 50.43 H 134 C4134 0
16209 H 23.66 64.55 49.72 H 134 C4134 0
16210 H 22.64 63.57 49.08 H 134 C4134 0
16211 C1 23.87 62.64 50.45 C.3 134 C4134 0
16212 O2 24.07 61.65 49.75 O.3 134 C4134 0
16213 O3 24.34 62.67 51.72 O.3 134 C4134 0
16214 C 22.79 64.81 52.07 C.3 134 C4134 0
16215 H 22.13 65.08 52.7 H 134 C4134 0
16216 H 23.35 64.15 52.45 H 134 C4134 0
16217 H 23.31 65.57 51.81 H 134 C4134 0
16218 C 19.03 61.58 52.29 C.3 134 C4134 0
16219 C 20 62.08 53.17 C.3 134 C4134 0
16220 H 18.46 60.98 52.75 H 134 C4134 0
16221 H 20.59 61.37 53.42 H 134 C4134 0
16222 H 19.58 62.42 53.95 H 134 C4134 0
16223 C1 20.8 63.2 52.48 C.3 134 C4134 0
16224 O2 21 64.26 53.08 O.3 134 C4134 0
16225 O3 21.27 63.02 51.22 O.3 134 C4134 0
16226 C 19.72 60.86 51.12 C.3 134 C4134 0
16227 H 19.06 60.53 50.52 H 134 C4134 0
16228 H 20.29 61.47 50.66 H 134 C4134 0
16229 H 20.24 60.14 51.46 H 134 C4134 0
16230 C 15.96 64.04 50.54 C.3 134 C4134 0
16231 C 16.93 63.46 49.72 C.3 134 C4134 0
16232 H 15.4 64.6 50.02 H 134 C4134 0
16233 H 17.52 64.13 49.4 H 134 C4134 0
16234 H 16.51 63.03 48.98 H 134 C4134 0
16235 C1 17.73 62.42 50.53 C.3 134 C4134 0
16236 O2 17.94 61.3 50.06 O.3 134 C4134 0
16237 O3 18.21 62.73 51.76 O.3 134 C4134 0
16238 C 16.65 64.89 51.62 C.3 134 C4134 0
16239 H 16 65.29 52.18 H 134 C4134 0
16240 H 17.22 64.34 52.15 H 134 C4134 0
16241 H 17.17 65.57 51.21 H 134 C4134 0
16242 C 12.89 61.79 52.55 C.3 134 C4134 0
16243 C 13.87 62.47 53.31 C.3 134 C4134 0
16244 H 12.33 61.3 53.13 H 134 C4134 0
16245 H 14.45 61.84 53.7 H 134 C4134 0
16246 H 13.44 62.97 53.99 H 134 C4134 0
16247 C1 14.66 63.41 52.39 C.3 134 C4134 0
16248 O2 14.87 64.58 52.73 O.3 134 C4134 0
16249 O3 15.14 62.96 51.2 O.3 134 C4134 0
16250 C 13.59 60.83 51.57 C.3 134 C4134 0
16251 H 12.93 60.37 51.06 H 134 C4134 0
16252 H 14.15 61.32 50.99 H 134 C4134 0
16253 H 14.1 60.2 52.06 H 134 C4134 0
16254 C 9.83 63.81 50.3 C.3 134 C4134 0
16255 C 10.8 63.05 49.63 C.3 134 C4134 0
16256 H 9.26 64.23 49.67 H 134 C4134 0
16257 H 11.39 63.64 49.17 H 134 C4134 0
16258 H 10.37 62.47 49.01 H 134 C4134 0
16259 C1 11.59 62.22 50.65 C.3 134 C4134 0
16260 O2 11.8 61.02 50.43 O.3 134 C4134 0
16261 O3 12.07 62.8 51.78 O.3 134 C4134 0
16262 C 10.52 64.87 51.17 C.3 134 C4134 0
16263 H 9.86 65.38 51.63 H 134 C4134 0
16264 H 11.08 64.45 51.81 H 134 C4134 0
16265 H 11.04 65.45 50.62 H 134 C4134 0
16266 C 6.76 62.06 52.76 C.3 134 C4134 0
16267 C 7.73 62.88 53.35 C.3 134 C4134 0
16268 H 6.19 61.7 53.44 H 134 C4134 0
16269 H 8.32 62.35 53.87 H 134 C4134 0
16270 H 7.31 63.52 53.9 H 134 C4134 0
16271 C1 8.53 63.6 52.24 C.3 134 C4134 0
16272 O2 8.73 64.81 52.32 O.3 134 C4134 0
16273 O3 9 62.9 51.18 O.3 134 C4134 0
16274 C 7.45 60.9 52.01 C.3 134 C4134 0
16275 H 6.79 60.34 51.62 H 134 C4134 0
16276 H 8.02 61.25 51.34 H 134 C4134 0
16277 H 7.97 60.39 52.63 H 134 C4134 0
16278 H 3.17 63.09 50.79 H 135 C4135 0
16279 C 3.69 63.52 50.12 C.3 135 C4135 0
16280 C 4.66 62.64 49.63 C.3 135 C4135 0
16281 H 3.13 63.8 49.41 H 135 C4135 0
16282 H 5.25 63.11 49.06 H 135 C4135 0
16283 H 4.24 61.94 49.15 H 135 C4135 0
16284 C1 5.46 62.05 50.81 C.3 135 C4135 0
16285 O2 5.67 60.84 50.87 O.3 135 C4135 0
16286 O3 5.94 62.86 51.79 O.3 135 C4135 0
16287 C 4.38 64.76 50.74 C.3 135 C4135 0
16288 H 3.72 65.35 51.07 H 135 C4135 0
16289 H 4.95 64.48 51.45 H 135 C4135 0
16290 H 4.9 65.19 50.07 H 135 C4135 0
16291 C 92.65 63.61 61.6 C.3 136 C4136 0
16292 C 93.62 62.77 61.05 C.3 136 C4136 0
16293 H 92.09 63.94 60.91 H 136 C4136 0
16294 H 94.21 63.28 60.51 H 136 C4136 0
16295 H 93.2 62.1 60.52 H 136 C4136 0
16296 C1 94.42 62.09 62.18 C.3 136 C4136 0
16297 O2 94.63 60.88 62.15 O.3 136 C4136 0
16298 O3 94.9 62.83 63.21 O.3 136 C4136 0
16299 H5 95.42 62.28 63.79 H 136 C4136 0
16300 C 93.34 64.79 62.31 C.3 136 C4136 0
16301 H 92.68 65.37 62.68 H 136 C4136 0
16302 H 93.91 64.47 62.99 H 136 C4136 0
16303 H 93.86 65.28 61.67 H 136 C4136 0
16304 C 89.58 62.25 64.29 C.3 137 C4137 0
16305 C 90.55 63.15 64.75 C.3 137 C4137 0
16306 H 89.02 62 65.01 H 137 C4137 0
16307 H 91.15 62.7 65.35 H 137 C4137 0
16308 H 90.13 63.87 65.2 H 137 C4137 0
16309 C1 91.35 63.69 63.55 C.3 137 C4137 0
16310 O2 91.56 64.9 63.45 O.3 137 C4137 0
16311 O3 91.83 62.84 62.61 O.3 137 C4137 0
16312 C 90.28 60.99 63.73 C.3 137 C4137 0
16313 H 89.62 60.38 63.42 H 137 C4137 0
16314 H 90.84 61.24 63.01 H 137 C4137 0
16315 H 90.79 60.58 64.41 H 137 C4137 0
16316 C 86.52 63.31 61.47 C.3 137 C4137 0
16317 C 87.49 62.36 61.11 C.3 137 C4137 0
16318 H 85.95 63.47 60.72 H 137 C4137 0
16319 H 88.08 62.74 60.47 H 137 C4137 0
16320 H 87.06 61.6 60.74 H 137 C4137 0
16321 C1 88.28 61.95 62.37 C.3 137 C4137 0
16322 O2 88.49 60.76 62.6 O.3 137 C4137 0
16323 O3 88.76 62.9 63.21 O.3 137 C4137 0
16324 C 87.21 64.62 61.89 C.3 137 C4137 0
16325 H 86.55 65.26 62.13 H 137 C4137 0
16326 H 87.77 64.45 62.64 H 137 C4137 0
16327 H 87.73 64.95 61.17 H 137 C4137 0
16328 C 83.45 62.57 64.39 C.3 137 C4137 0
16329 C 84.42 63.54 64.64 C.3 137 C4137 0
16330 H 82.88 62.48 65.15 H 137 C4137 0
16331 H 85.01 63.24 65.32 H 137 C4137 0
16332 H 84 64.35 64.93 H 137 C4137 0
16333 C1 85.22 63.82 63.35 C.3 137 C4137 0
16334 O2 85.42 64.97 62.99 O.3 137 C4137 0
16335 O3 85.69 62.78 62.62 O.3 137 C4137 0
16336 C 84.14 61.22 64.12 C.3 137 C4137 0
16337 H 83.48 60.55 63.95 H 137 C4137 0
16338 H 84.71 61.3 63.36 H 137 C4137 0
16339 H 84.66 60.97 64.87 H 137 C4137 0
16340 C 80.38 62.98 61.4 C.3 137 C4137 0
16341 C 81.35 61.98 61.27 C.3 137 C4137 0
16342 H 79.82 62.98 60.64 H 137 C4137 0
16343 H 81.94 62.21 60.56 H 137 C4137 0
16344 H 80.93 61.15 61.07 H 137 C4137 0
16345 C1 82.15 61.85 62.58 C.3 137 C4137 0
16346 O2 82.36 60.74 63.07 O.3 137 C4137 0
16347 O3 82.63 62.97 63.19 O.3 137 C4137 0
16348 C 81.07 64.35 61.53 C.3 137 C4137 0
16349 H 80.41 65.03 61.63 H 137 C4137 0
16350 H 81.64 64.35 62.29 H 137 C4137 0
16351 H 81.59 64.52 60.75 H 137 C4137 0
16352 C 77.31 62.9 64.42 C.3 137 C4137 0
16353 C 78.28 63.91 64.45 C.3 137 C4137 0
16354 H 76.75 62.98 65.18 H 137 C4137 0
16355 H 78.88 63.76 65.18 H 137 C4137 0
16356 H 77.86 64.75 64.55 H 137 C4137 0
16357 C1 79.08 63.89 63.13 C.3 137 C4137 0
16358 O2 79.29 64.94 62.52 O.3 137 C4137 0
16359 O3 79.56 62.71 62.64 O.3 137 C4137 0
16360 C 78.01 61.52 64.45 C.3 137 C4137 0
16361 H 77.35 60.84 64.43 H 137 C4137 0
16362 H 78.57 61.44 63.69 H 137 C4137 0
16363 H 78.52 61.44 65.24 H 137 C4137 0
16364 C 74.25 62.65 61.41 C.3 137 C4137 0
16365 C 75.22 61.64 61.5 C.3 137 C4137 0
16366 H 73.68 62.48 60.67 H 137 C4137 0
16367 H 75.81 61.7 60.76 H 137 C4137 0
16368 H 74.79 60.79 61.49 H 137 C4137 0
16369 C1 76.01 61.8 62.81 C.3 137 C4137 0
16370 O2 76.22 60.83 63.53 O.3 137 C4137 0
16371 O3 76.49 63.03 63.16 O.3 137 C4137 0
16372 C 74.94 64.01 61.24 C.3 137 C4137 0
16373 H 74.28 64.69 61.18 H 137 C4137 0
16374 H 75.5 64.18 61.98 H 137 C4137 0
16375 H 75.46 64 60.44 H 137 C4137 0
16376 C 71.18 63.23 64.38 C.3 137 C4137 0
16377 C 72.15 64.22 64.18 C.3 137 C4137 0
16378 H 70.61 63.48 65.1 H 137 C4137 0
16379 H 72.74 64.24 64.92 H 137 C4137 0
16380 H 71.73 65.07 64.09 H 137 C4137 0
16381 C1 72.95 63.91 62.9 C.3 137 C4137 0
16382 O2 73.15 64.8 62.07 O.3 137 C4137 0
16383 O3 73.42 62.66 62.68 O.3 137 C4137 0
16384 C 71.87 61.89 64.7 C.3 137 C4137 0
16385 H 71.21 61.22 64.84 H 137 C4137 0
16386 H 72.44 61.65 63.98 H 137 C4137 0
16387 H 72.39 61.99 65.49 H 137 C4137 0
16388 C 68.11 62.32 61.5 C.3 137 C4137 0
16389 C 69.08 61.36 61.8 C.3 137 C4137 0
16390 H 67.55 61.99 60.81 H 137 C4137 0
16391 H 69.67 61.26 61.06 H 137 C4137 0
16392 H 68.66 60.53 61.98 H 137 C4137 0
16393 C1 69.88 61.81 63.04 C.3 137 C4137 0
16394 O2 70.09 61.02 63.96 O.3 137 C4137 0
16395 O3 70.36 63.08 63.12 O.3 137 C4137 0
16396 C 68.8 63.61 61.02 C.3 137 C4137 0
16397 H 68.14 64.27 60.82 H 137 C4137 0
16398 H 69.37 63.94 61.71 H 137 C4137 0
16399 H 69.32 63.43 60.25 H 137 C4137 0
16400 C 65.04 63.54 64.26 C.3 137 C4137 0
16401 C 66.01 64.47 63.85 C.3 137 C4137 0
16402 H 64.48 63.95 64.91 H 137 C4137 0
16403 H 66.6 64.65 64.57 H 137 C4137 0
16404 H 65.59 65.27 63.58 H 137 C4137 0
16405 C1 66.81 63.89 62.67 C.3 137 C4137 0
16406 O2 67.02 64.57 61.67 O.3 137 C4137 0
16407 O3 67.29 62.61 62.73 O.3 137 C4137 0
16408 C 65.74 62.31 64.87 C.3 137 C4137 0
16409 H 65.08 61.69 65.15 H 137 C4137 0
16410 H 66.3 61.91 64.22 H 137 C4137 0
16411 H 66.25 62.58 65.62 H 137 C4137 0
16412 C 61.98 62.03 61.65 C.3 137 C4137 0
16413 C 62.95 61.15 62.16 C.3 137 C4137 0
16414 H 61.41 61.55 61.05 H 137 C4137 0
16415 H 63.54 60.89 61.46 H 137 C4137 0
16416 H 62.52 60.38 62.52 H 137 C4137 0
16417 C1 63.74 61.86 63.27 C.3 137 C4137 0
16418 O2 63.95 61.29 64.34 O.3 137 C4137 0
16419 O3 64.22 63.12 63.07 O.3 137 C4137 0
16420 C 62.67 63.18 60.9 C.3 137 C4137 0
16421 H 62.01 63.77 60.56 H 137 C4137 0
16422 H 63.23 63.65 61.5 H 137 C4137 0
16423 H 63.19 62.83 60.19 H 137 C4137 0
16424 C 58.91 63.82 64.07 C.3 137 C4137 0
16425 C 59.88 64.63 63.47 C.3 137 C4137 0
16426 H 58.34 64.36 64.62 H 137 C4137 0
16427 H 60.47 64.97 64.14 H 137 C4137 0
16428 H 59.46 65.36 63.03 H 137 C4137 0
16429 C1 60.68 63.81 62.45 C.3 137 C4137 0
16430 O2 60.88 64.26 61.32 O.3 137 C4137 0
16431 O3 61.15 62.58 62.79 O.3 137 C4137 0
16432 C 59.6 62.76 64.94 C.3 137 C4137 0
16433 H 58.94 62.21 65.35 H 137 C4137 0
16434 H 60.17 62.22 64.4 H 137 C4137 0
16435 H 60.12 63.18 65.62 H 137 C4137 0
16436 C 55.84 61.77 61.86 C.3 137 C4137 0
16437 C 56.81 61.03 62.55 C.3 137 C4137 0
16438 H 55.27 61.18 61.38 H 137 C4137 0
16439 H 57.4 60.62 61.93 H 137 C4137 0
16440 H 56.39 60.36 63.07 H 137 C4137 0
16441 C1 57.61 61.96 63.48 C.3 137 C4137 0
16442 O2 57.81 61.64 64.65 O.3 137 C4137 0
16443 O3 58.09 63.15 63 O.3 137 C4137 0
16444 C 56.53 62.73 60.88 C.3 137 C4137 0
16445 H 55.87 63.24 60.42 H 137 C4137 0
16446 H 57.1 63.32 61.36 H 137 C4137 0
16447 H 57.05 62.24 60.26 H 137 C4137 0
16448 C 52.77 64.06 63.83 C.3 137 C4137 0
16449 C 53.74 64.72 63.07 C.3 137 C4137 0
16450 H 52.21 64.7 64.25 H 137 C4137 0
16451 H 54.33 65.19 63.64 H 137 C4137 0
16452 H 53.32 65.33 62.48 H 137 C4137 0
16453 C1 54.54 63.68 62.25 C.3 137 C4137 0
16454 O2 54.75 63.87 61.05 O.3 137 C4137 0
16455 O3 55.02 62.56 62.85 O.3 137 C4137 0
16456 C 53.46 63.21 64.92 C.3 137 C4137 0
16457 H 52.81 62.76 65.43 H 137 C4137 0
16458 H 54.03 62.57 64.5 H 137 C4137 0
16459 H 53.98 63.77 65.48 H 137 C4137 0
16460 C 49.71 61.57 62.13 C.3 137 C4137 0
16461 C 50.68 60.99 62.96 C.3 137 C4137 0
16462 H 49.14 60.88 61.79 H 137 C4137 0
16463 H 51.27 60.46 62.44 H 137 C4137 0
16464 H 50.25 60.45 63.62 H 137 C4137 0
16465 C1 51.47 62.11 63.66 C.3 137 C4137 0
16466 O2 51.68 62.06 64.87 O.3 137 C4137 0
16467 O3 51.95 63.16 62.94 O.3 137 C4137 0
16468 C 50.4 62.29 60.96 C.3 137 C4137 0
16469 H 49.74 62.68 60.39 H 137 C4137 0
16470 H 50.96 62.97 61.3 H 137 C4137 0
16471 H 50.91 61.67 60.46 H 137 C4137 0
16472 C 46.64 64.23 63.55 C.3 137 C4137 0
16473 C 47.61 64.71 62.66 C.3 137 C4137 0
16474 H 46.07 64.95 63.81 H 137 C4137 0
16475 H 48.2 65.29 63.11 H 137 C4137 0
16476 H 47.19 65.17 61.95 H 137 C4137 0
16477 C1 48.41 63.52 62.09 C.3 137 C4137 0
16478 O2 48.61 63.44 60.88 O.3 137 C4137 0
16479 O3 48.88 62.55 62.92 O.3 137 C4137 0
16480 C 47.33 63.64 64.79 C.3 137 C4137 0
16481 H 46.67 63.32 65.39 H 137 C4137 0
16482 H 47.9 62.92 64.53 H 137 C4137 0
16483 H 47.85 64.31 65.21 H 137 C4137 0
16484 C 43.57 61.43 62.43 C.3 137 C4137 0
16485 C 44.54 61.05 63.37 C.3 137 C4137 0
16486 H 43.01 60.68 62.25 H 137 C4137 0
16487 H 45.13 60.42 62.98 H 137 C4137 0
16488 H 44.12 60.67 64.13 H 137 C4137 0
16489 C1 45.34 62.3 63.81 C.3 137 C4137 0
16490 O2 45.54 62.51 65 O.3 137 C4137 0
16491 O3 45.82 63.16 62.87 O.3 137 C4137 0
16492 C 44.26 61.88 61.13 C.3 137 C4137 0
16493 H 43.6 62.13 60.5 H 137 C4137 0
16494 H 44.83 62.62 61.31 H 137 C4137 0
16495 H 44.78 61.16 60.78 H 137 C4137 0
16496 C 40.5 64.34 63.23 C.3 137 C4137 0
16497 C 41.47 64.6 62.26 C.3 137 C4137 0
16498 H 39.94 65.09 63.33 H 137 C4137 0
16499 H 42.06 65.28 62.57 H 137 C4137 0
16500 H 41.05 64.9 61.46 H 137 C4137 0
16501 C1 42.27 63.32 61.96 C.3 137 C4137 0
16502 O2 42.48 62.98 60.8 O.3 137 C4137 0
16503 O3 42.75 62.56 62.99 O.3 137 C4137 0
16504 C 41.19 64.03 64.57 C.3 137 C4137 0
16505 H 40.54 63.85 65.23 H 137 C4137 0
16506 H 41.76 63.28 64.47 H 137 C4137 0
16507 H 41.71 64.78 64.84 H 137 C4137 0
16508 C 37.44 61.36 62.76 C.3 137 C4137 0
16509 C 38.41 61.2 63.76 C.3 137 C4137 0
16510 H 36.87 60.59 62.75 H 137 C4137 0
16511 H 39 60.49 63.52 H 137 C4137 0
16512 H 37.98 60.99 64.58 H 137 C4137 0
16513 C1 39.2 62.51 63.91 C.3 137 C4137 0
16514 O2 39.41 62.98 65.03 O.3 137 C4137 0
16515 O3 39.68 63.15 62.81 O.3 137 C4137 0
16516 C 38.13 61.51 61.39 C.3 137 C4137 0
16517 H 37.47 61.62 60.72 H 137 C4137 0
16518 H 38.69 62.27 61.41 H 137 C4137 0
16519 H 38.64 60.73 61.21 H 137 C4137 0
16520 C 34.37 64.37 62.9 C.3 137 C4137 0
16521 C 35.34 64.42 61.89 C.3 137 C4137 0
16522 H 33.8 65.13 62.83 H 137 C4137 0
16523 H 35.93 65.14 62.05 H 137 C4137 0
16524 H 34.91 64.53 61.05 H 137 C4137 0
16525 C1 36.14 63.1 61.88 C.3 137 C4137 0
16526 O2 36.34 62.51 60.82 O.3 137 C4137 0
16527 O3 36.61 62.59 63.05 O.3 137 C4137 0
16528 C 35.06 64.37 64.27 C.3 137 C4137 0
16529 H 34.4 64.34 64.96 H 137 C4137 0
16530 H 35.62 63.61 64.34 H 137 C4137 0
16531 H 35.58 65.16 64.37 H 137 C4137 0
16532 C 31.3 61.36 63.1 C.3 137 C4137 0
16533 C 32.27 61.43 64.1 C.3 137 C4137 0
16534 H 30.73 60.61 63.25 H 137 C4137 0
16535 H 32.86 60.68 64.02 H 137 C4137 0
16536 H 31.85 61.4 64.95 H 137 C4137 0
16537 C1 33.07 62.74 63.96 C.3 137 C4137 0
16538 O2 33.27 63.44 64.95 O.3 137 C4137 0
16539 O3 33.54 63.11 62.75 O.3 137 C4137 0
16540 C 31.99 61.21 61.73 C.3 137 C4137 0
16541 H 31.33 61.16 61.04 H 137 C4137 0
16542 H 32.56 61.96 61.57 H 137 C4137 0
16543 H 32.51 60.41 61.72 H 137 C4137 0
16544 C 28.23 64.33 62.57 C.3 137 C4137 0
16545 C 29.2 64.16 61.57 C.3 137 C4137 0
16546 H 27.67 65.06 62.33 H 137 C4137 0
16547 H 29.79 64.9 61.57 H 137 C4137 0
16548 H 28.78 64.08 60.73 H 137 C4137 0
16549 C1 30 62.87 61.86 C.3 137 C4137 0
16550 O2 30.21 62.06 60.95 O.3 137 C4137 0
16551 O3 30.48 62.63 63.11 O.3 137 C4137 0
16552 C 28.92 64.63 63.91 C.3 137 C4137 0
16553 H 28.27 64.75 64.58 H 137 C4137 0
16554 H 29.49 63.91 64.14 H 137 C4137 0
16555 H 29.44 65.43 63.83 H 137 C4137 0
16556 C 25.17 61.44 63.42 C.3 137 C4137 0
16557 C 26.14 61.72 64.39 C.3 137 C4137 0
16558 H 24.6 60.74 63.74 H 137 C4137 0
16559 H 26.73 60.98 64.47 H 137 C4137 0
16560 H 25.71 61.89 65.22 H 137 C4137 0
16561 C1 26.93 62.97 63.96 C.3 137 C4137 0
16562 O2 27.14 63.87 64.77 O.3 137 C4137 0
16563 O3 27.41 63.07 62.7 O.3 137 C4137 0
16564 C 25.86 60.99 62.12 C.3 137 C4137 0
16565 H 25.2 60.8 61.46 H 137 C4137 0
16566 H 26.42 61.68 61.81 H 137 C4137 0
16567 H 26.37 60.21 62.29 H 137 C4137 0
16568 C 22.1 64.22 62.25 C.3 137 C4137 0
16569 C 23.07 63.83 61.32 C.3 137 C4137 0
16570 H 21.53 64.88 61.86 H 137 C4137 0
16571 H 23.66 64.55 61.15 H 137 C4137 0
16572 H 22.64 63.57 60.51 H 137 C4137 0
16573 C1 23.87 62.64 61.88 C.3 137 C4137 0
16574 O2 24.07 61.65 61.18 O.3 137 C4137 0
16575 O3 24.34 62.67 63.15 O.3 137 C4137 0
16576 C 22.79 64.81 63.5 C.3 137 C4137 0
16577 H 22.13 65.08 64.13 H 137 C4137 0
16578 H 23.35 64.15 63.88 H 137 C4137 0
16579 H 23.31 65.57 63.24 H 137 C4137 0
16580 C 19.03 61.58 63.72 C.3 137 C4137 0
16581 C 20 62.08 64.6 C.3 137 C4137 0
16582 H 18.46 60.98 64.18 H 137 C4137 0
16583 H 20.59 61.37 64.85 H 137 C4137 0
16584 H 19.58 62.42 65.38 H 137 C4137 0
16585 C1 20.8 63.2 63.91 C.3 137 C4137 0
16586 O2 21 64.26 64.51 O.3 137 C4137 0
16587 O3 21.27 63.02 62.65 O.3 137 C4137 0
16588 C 19.72 60.86 62.55 C.3 137 C4137 0
16589 H 19.06 60.53 61.95 H 137 C4137 0
16590 H 20.29 61.47 62.09 H 137 C4137 0
16591 H 20.24 60.14 62.89 H 137 C4137 0
16592 C 15.96 64.04 61.97 C.3 137 C4137 0
16593 C 16.93 63.46 61.15 C.3 137 C4137 0
16594 H 15.4 64.6 61.45 H 137 C4137 0
16595 H 17.52 64.13 60.83 H 137 C4137 0
16596 H 16.51 63.03 60.41 H 137 C4137 0
16597 C1 17.73 62.42 61.96 C.3 137 C4137 0
16598 O2 17.94 61.3 61.49 O.3 137 C4137 0
16599 O3 18.21 62.73 63.19 O.3 137 C4137 0
16600 C 16.65 64.89 63.05 C.3 137 C4137 0
16601 H 16 65.29 63.61 H 137 C4137 0
16602 H 17.22 64.34 63.58 H 137 C4137 0
16603 H 17.17 65.57 62.64 H 137 C4137 0
16604 C 12.89 61.79 63.98 C.3 137 C4137 0
16605 C 13.87 62.47 64.74 C.3 137 C4137 0
16606 H 12.33 61.3 64.56 H 137 C4137 0
16607 H 14.45 61.84 65.13 H 137 C4137 0
16608 H 13.44 62.97 65.42 H 137 C4137 0
16609 C1 14.66 63.41 63.82 C.3 137 C4137 0
16610 O2 14.87 64.58 64.16 O.3 137 C4137 0
16611 O3 15.14 62.96 62.63 O.3 137 C4137 0
16612 C 13.59 60.83 63 C.3 137 C4137 0
16613 H 12.93 60.37 62.49 H 137 C4137 0
16614 H 14.15 61.32 62.42 H 137 C4137 0
16615 H 14.1 60.2 63.49 H 137 C4137 0
16616 C 9.83 63.81 61.73 C.3 137 C4137 0
16617 C 10.8 63.05 61.06 C.3 137 C4137 0
16618 H 9.26 64.23 61.1 H 137 C4137 0
16619 H 11.39 63.64 60.6 H 137 C4137 0
16620 H 10.37 62.47 60.44 H 137 C4137 0
16621 C1 11.59 62.22 62.08 C.3 137 C4137 0
16622 O2 11.8 61.02 61.86 O.3 137 C4137 0
16623 O3 12.07 62.8 63.21 O.3 137 C4137 0
16624 C 10.52 64.87 62.6 C.3 137 C4137 0
16625 H 9.86 65.38 63.06 H 137 C4137 0
16626 H 11.08 64.45 63.24 H 137 C4137 0
16627 H 11.04 65.45 62.05 H 137 C4137 0
16628 C 6.76 62.06 64.19 C.3 137 C4137 0
16629 C 7.73 62.88 64.78 C.3 137 C4137 0
16630 H 6.19 61.7 64.87 H 137 C4137 0
16631 H 8.32 62.35 65.3 H 137 C4137 0
16632 H 7.31 63.52 65.33 H 137 C4137 0
16633 C1 8.53 63.6 63.67 C.3 137 C4137 0
16634 O2 8.73 64.81 63.75 O.3 137 C4137 0
16635 O3 9 62.9 62.61 O.3 137 C4137 0
16636 C 7.45 60.9 63.44 C.3 137 C4137 0
16637 H 6.79 60.34 63.05 H 137 C4137 0
16638 H 8.02 61.25 62.77 H 137 C4137 0
16639 H 7.97 60.39 64.06 H 137 C4137 0
16640 H 3.17 63.09 62.22 H 138 C4138 0
16641 C 3.69 63.52 61.55 C.3 138 C4138 0
16642 C 4.66 62.64 61.06 C.3 138 C4138 0
16643 H 3.13 63.8 60.84 H 138 C4138 0
16644 H 5.25 63.11 60.49 H 138 C4138 0
16645 H 4.24 61.94 60.58 H 138 C4138 0
16646 C1 5.46 62.05 62.24 C.3 138 C4138 0
16647 O2 5.67 60.84 62.3 O.3 138 C4138 0
16648 O3 5.94 62.86 63.22 O.3 138 C4138 0
16649 C 4.38 64.76 62.17 C.3 138 C4138 0
16650 H 3.72 65.35 62.5 H 138 C4138 0
16651 H 4.95 64.48 62.88 H 138 C4138 0
16652 H 4.9 65.19 61.5 H 138 C4138 0
16653 C 92.65 63.61 73.03 C.3 139 C4139 0
16654 C 93.62 62.77 72.48 C.3 139 C4139 0
16655 H 92.09 63.94 72.34 H 139 C4139 0
16656 H 94.21 63.28 71.94 H 139 C4139 0
16657 H 93.2 62.1 71.95 H 139 C4139 0
16658 C1 94.42 62.09 73.61 C.3 139 C4139 0
16659 O2 94.63 60.88 73.58 O.3 139 C4139 0
16660 O3 94.9 62.83 74.64 O.3 139 C4139 0
16661 H5 95.42 62.28 75.22 H 139 C4139 0
16662 C 93.34 64.79 73.74 C.3 139 C4139 0
16663 H 92.68 65.37 74.11 H 139 C4139 0
16664 H 93.91 64.47 74.42 H 139 C4139 0
16665 H 93.86 65.28 73.1 H 139 C4139 0
16666 C 89.58 62.25 75.72 C.3 140 C4140 0
16667 C 90.55 63.15 76.18 C.3 140 C4140 0
16668 H 89.02 62 76.44 H 140 C4140 0
16669 H 91.15 62.7 76.78 H 140 C4140 0
16670 H 90.13 63.87 76.63 H 140 C4140 0
16671 C1 91.35 63.69 74.98 C.3 140 C4140 0
16672 O2 91.56 64.9 74.88 O.3 140 C4140 0
16673 O3 91.83 62.84 74.04 O.3 140 C4140 0
16674 C 90.28 60.99 75.16 C.3 140 C4140 0
16675 H 89.62 60.38 74.85 H 140 C4140 0
16676 H 90.84 61.24 74.44 H 140 C4140 0
16677 H 90.79 60.58 75.84 H 140 C4140 0
16678 C 86.52 63.31 72.9 C.3 140 C4140 0
16679 C 87.49 62.36 72.54 C.3 140 C4140 0
16680 H 85.95 63.47 72.15 H 140 C4140 0
16681 H 88.08 62.74 71.9 H 140 C4140 0
16682 H 87.06 61.6 72.17 H 140 C4140 0
16683 C1 88.28 61.95 73.8 C.3 140 C4140 0
16684 O2 88.49 60.76 74.03 O.3 140 C4140 0
16685 O3 88.76 62.9 74.64 O.3 140 C4140 0
16686 C 87.21 64.62 73.32 C.3 140 C4140 0
16687 H 86.55 65.26 73.56 H 140 C4140 0
16688 H 87.77 64.45 74.07 H 140 C4140 0
16689 H 87.73 64.95 72.6 H 140 C4140 0
16690 C 83.45 62.57 75.82 C.3 140 C4140 0
16691 C 84.42 63.54 76.07 C.3 140 C4140 0
16692 H 82.88 62.48 76.58 H 140 C4140 0
16693 H 85.01 63.24 76.75 H 140 C4140 0
16694 H 84 64.35 76.36 H 140 C4140 0
16695 C1 85.22 63.82 74.78 C.3 140 C4140 0
16696 O2 85.42 64.97 74.42 O.3 140 C4140 0
16697 O3 85.69 62.78 74.05 O.3 140 C4140 0
16698 C 84.14 61.22 75.55 C.3 140 C4140 0
16699 H 83.48 60.55 75.38 H 140 C4140 0
16700 H 84.71 61.3 74.79 H 140 C4140 0
16701 H 84.66 60.97 76.3 H 140 C4140 0
16702 C 80.38 62.98 72.83 C.3 140 C4140 0
16703 C 81.35 61.98 72.7 C.3 140 C4140 0
16704 H 79.82 62.98 72.07 H 140 C4140 0
16705 H 81.94 62.21 71.99 H 140 C4140 0
16706 H 80.93 61.15 72.5 H 140 C4140 0
16707 C1 82.15 61.85 74.01 C.3 140 C4140 0
16708 O2 82.36 60.74 74.5 O.3 140 C4140 0
16709 O3 82.63 62.97 74.62 O.3 140 C4140 0
16710 C 81.07 64.35 72.96 C.3 140 C4140 0
16711 H 80.41 65.03 73.06 H 140 C4140 0
16712 H 81.64 64.35 73.72 H 140 C4140 0
16713 H 81.59 64.52 72.18 H 140 C4140 0
16714 C 77.31 62.9 75.85 C.3 140 C4140 0
16715 C 78.28 63.91 75.88 C.3 140 C4140 0
16716 H 76.75 62.98 76.61 H 140 C4140 0
16717 H 78.88 63.76 76.61 H 140 C4140 0
16718 H 77.86 64.75 75.98 H 140 C4140 0
16719 C1 79.08 63.89 74.56 C.3 140 C4140 0
16720 O2 79.29 64.94 73.95 O.3 140 C4140 0
16721 O3 79.56 62.71 74.07 O.3 140 C4140 0
16722 C 78.01 61.52 75.88 C.3 140 C4140 0
16723 H 77.35 60.84 75.86 H 140 C4140 0
16724 H 78.57 61.44 75.12 H 140 C4140 0
16725 H 78.52 61.44 76.67 H 140 C4140 0
16726 C 74.25 62.65 72.84 C.3 140 C4140 0
16727 C 75.22 61.64 72.93 C.3 140 C4140 0
16728 H 73.68 62.48 72.1 H 140 C4140 0
16729 H 75.81 61.7 72.19 H 140 C4140 0
16730 H 74.79 60.79 72.92 H 140 C4140 0
16731 C1 76.01 61.8 74.24 C.3 140 C4140 0
16732 O2 76.22 60.83 74.96 O.3 140 C4140 0
16733 O3 76.49 63.03 74.59 O.3 140 C4140 0
16734 C 74.94 64.01 72.67 C.3 140 C4140 0
16735 H 74.28 64.69 72.61 H 140 C4140 0
16736 H 75.5 64.18 73.41 H 140 C4140 0
16737 H 75.46 64 71.87 H 140 C4140 0
16738 C 71.18 63.23 75.81 C.3 140 C4140 0
16739 C 72.15 64.22 75.61 C.3 140 C4140 0
16740 H 70.61 63.48 76.53 H 140 C4140 0
16741 H 72.74 64.24 76.35 H 140 C4140 0
16742 H 71.73 65.07 75.52 H 140 C4140 0
16743 C1 72.95 63.91 74.33 C.3 140 C4140 0
16744 O2 73.15 64.8 73.5 O.3 140 C4140 0
16745 O3 73.42 62.66 74.11 O.3 140 C4140 0
16746 C 71.87 61.89 76.13 C.3 140 C4140 0
16747 H 71.21 61.22 76.27 H 140 C4140 0
16748 H 72.44 61.65 75.41 H 140 C4140 0
16749 H 72.39 61.99 76.92 H 140 C4140 0
16750 C 68.11 62.32 72.93 C.3 140 C4140 0
16751 C 69.08 61.36 73.23 C.3 140 C4140 0
16752 H 67.55 61.99 72.24 H 140 C4140 0
16753 H 69.67 61.26 72.49 H 140 C4140 0
16754 H 68.66 60.53 73.41 H 140 C4140 0
16755 C1 69.88 61.81 74.47 C.3 140 C4140 0
16756 O2 70.09 61.02 75.39 O.3 140 C4140 0
16757 O3 70.36 63.08 74.55 O.3 140 C4140 0
16758 C 68.8 63.61 72.45 C.3 140 C4140 0
16759 H 68.14 64.27 72.25 H 140 C4140 0
16760 H 69.37 63.94 73.14 H 140 C4140 0
16761 H 69.32 63.43 71.68 H 140 C4140 0
16762 C 65.04 63.54 75.69 C.3 140 C4140 0
16763 C 66.01 64.47 75.28 C.3 140 C4140 0
16764 H 64.48 63.95 76.34 H 140 C4140 0
16765 H 66.6 64.65 76 H 140 C4140 0
16766 H 65.59 65.27 75.01 H 140 C4140 0
16767 C1 66.81 63.89 74.1 C.3 140 C4140 0
16768 O2 67.02 64.57 73.1 O.3 140 C4140 0
16769 O3 67.29 62.61 74.16 O.3 140 C4140 0
16770 C 65.74 62.31 76.3 C.3 140 C4140 0
16771 H 65.08 61.69 76.58 H 140 C4140 0
16772 H 66.3 61.91 75.65 H 140 C4140 0
16773 H 66.25 62.58 77.05 H 140 C4140 0
16774 C 61.98 62.03 73.08 C.3 140 C4140 0
16775 C 62.95 61.15 73.59 C.3 140 C4140 0
16776 H 61.41 61.55 72.48 H 140 C4140 0
16777 H 63.54 60.89 72.89 H 140 C4140 0
16778 H 62.52 60.38 73.95 H 140 C4140 0
16779 C1 63.74 61.86 74.7 C.3 140 C4140 0
16780 O2 63.95 61.29 75.77 O.3 140 C4140 0
16781 O3 64.22 63.12 74.5 O.3 140 C4140 0
16782 C 62.67 63.18 72.33 C.3 140 C4140 0
16783 H 62.01 63.77 71.99 H 140 C4140 0
16784 H 63.23 63.65 72.93 H 140 C4140 0
16785 H 63.19 62.83 71.62 H 140 C4140 0
16786 C 58.91 63.82 75.5 C.3 140 C4140 0
16787 C 59.88 64.63 74.9 C.3 140 C4140 0
16788 H 58.34 64.36 76.05 H 140 C4140 0
16789 H 60.47 64.97 75.57 H 140 C4140 0
16790 H 59.46 65.36 74.46 H 140 C4140 0
16791 C1 60.68 63.81 73.88 C.3 140 C4140 0
16792 O2 60.88 64.26 72.75 O.3 140 C4140 0
16793 O3 61.15 62.58 74.22 O.3 140 C4140 0
16794 C 59.6 62.76 76.37 C.3 140 C4140 0
16795 H 58.94 62.21 76.78 H 140 C4140 0
16796 H 60.17 62.22 75.83 H 140 C4140 0
16797 H 60.12 63.18 77.05 H 140 C4140 0
16798 C 55.84 61.77 73.29 C.3 140 C4140 0
16799 C 56.81 61.03 73.98 C.3 140 C4140 0
16800 H 55.27 61.18 72.81 H 140 C4140 0
16801 H 57.4 60.62 73.36 H 140 C4140 0
16802 H 56.39 60.36 74.5 H 140 C4140 0
16803 C1 57.61 61.96 74.91 C.3 140 C4140 0
16804 O2 57.81 61.64 76.08 O.3 140 C4140 0
16805 O3 58.09 63.15 74.43 O.3 140 C4140 0
16806 C 56.53 62.73 72.31 C.3 140 C4140 0
16807 H 55.87 63.24 71.85 H 140 C4140 0
16808 H 57.1 63.32 72.79 H 140 C4140 0
16809 H 57.05 62.24 71.69 H 140 C4140 0
16810 C 52.77 64.06 75.26 C.3 140 C4140 0
16811 C 53.74 64.72 74.5 C.3 140 C4140 0
16812 H 52.21 64.7 75.68 H 140 C4140 0
16813 H 54.33 65.19 75.07 H 140 C4140 0
16814 H 53.32 65.33 73.91 H 140 C4140 0
16815 C1 54.54 63.68 73.68 C.3 140 C4140 0
16816 O2 54.75 63.87 72.48 O.3 140 C4140 0
16817 O3 55.02 62.56 74.28 O.3 140 C4140 0
16818 C 53.46 63.21 76.35 C.3 140 C4140 0
16819 H 52.81 62.76 76.86 H 140 C4140 0
16820 H 54.03 62.57 75.93 H 140 C4140 0
16821 H 53.98 63.77 76.91 H 140 C4140 0
16822 C 49.71 61.57 73.56 C.3 140 C4140 0
16823 C 50.68 60.99 74.39 C.3 140 C4140 0
16824 H 49.14 60.88 73.22 H 140 C4140 0
16825 H 51.27 60.46 73.87 H 140 C4140 0
16826 H 50.25 60.45 75.05 H 140 C4140 0
16827 C1 51.47 62.11 75.09 C.3 140 C4140 0
16828 O2 51.68 62.06 76.3 O.3 140 C4140 0
16829 O3 51.95 63.16 74.37 O.3 140 C4140 0
16830 C 50.4 62.29 72.39 C.3 140 C4140 0
16831 H 49.74 62.68 71.82 H 140 C4140 0
16832 H 50.96 62.97 72.73 H 140 C4140 0
16833 H 50.91 61.67 71.89 H 140 C4140 0
16834 C 46.64 64.23 74.98 C.3 140 C4140 0
16835 C 47.61 64.71 74.09 C.3 140 C4140 0
16836 H 46.07 64.95 75.24 H 140 C4140 0
16837 H 48.2 65.29 74.54 H 140 C4140 0
16838 H 47.19 65.17 73.38 H 140 C4140 0
16839 C1 48.41 63.52 73.52 C.3 140 C4140 0
16840 O2 48.61 63.44 72.31 O.3 140 C4140 0
16841 O3 48.88 62.55 74.35 O.3 140 C4140 0
16842 C 47.33 63.64 76.22 C.3 140 C4140 0
16843 H 46.67 63.32 76.82 H 140 C4140 0
16844 H 47.9 62.92 75.96 H 140 C4140 0
16845 H 47.85 64.31 76.64 H 140 C4140 0
16846 C 43.57 61.43 73.86 C.3 140 C4140 0
16847 C 44.54 61.05 74.8 C.3 140 C4140 0
16848 H 43.01 60.68 73.68 H 140 C4140 0
16849 H 45.13 60.42 74.41 H 140 C4140 0
16850 H 44.12 60.67 75.56 H 140 C4140 0
16851 C1 45.34 62.3 75.24 C.3 140 C4140 0
16852 O2 45.54 62.51 76.43 O.3 140 C4140 0
16853 O3 45.82 63.16 74.3 O.3 140 C4140 0
16854 C 44.26 61.88 72.56 C.3 140 C4140 0
16855 H 43.6 62.13 71.93 H 140 C4140 0
16856 H 44.83 62.62 72.74 H 140 C4140 0
16857 H 44.78 61.16 72.21 H 140 C4140 0
16858 C 40.5 64.34 74.66 C.3 140 C4140 0
16859 C 41.47 64.6 73.69 C.3 140 C4140 0
16860 H 39.94 65.09 74.76 H 140 C4140 0
16861 H 42.06 65.28 74 H 140 C4140 0
16862 H 41.05 64.9 72.89 H 140 C4140 0
16863 C1 42.27 63.32 73.39 C.3 140 C4140 0
16864 O2 42.48 62.98 72.23 O.3 140 C4140 0
16865 O3 42.75 62.56 74.42 O.3 140 C4140 0
16866 C 41.19 64.03 76 C.3 140 C4140 0
16867 H 40.54 63.85 76.66 H 140 C4140 0
16868 H 41.76 63.28 75.9 H 140 C4140 0
16869 H 41.71 64.78 76.27 H 140 C4140 0
16870 C 37.44 61.36 74.19 C.3 140 C4140 0
16871 C 38.41 61.2 75.19 C.3 140 C4140 0
16872 H 36.87 60.59 74.18 H 140 C4140 0
16873 H 39 60.49 74.95 H 140 C4140 0
16874 H 37.98 60.99 76.01 H 140 C4140 0
16875 C1 39.2 62.51 75.34 C.3 140 C4140 0
16876 O2 39.41 62.98 76.46 O.3 140 C4140 0
16877 O3 39.68 63.15 74.24 O.3 140 C4140 0
16878 C 38.13 61.51 72.82 C.3 140 C4140 0
16879 H 37.47 61.62 72.15 H 140 C4140 0
16880 H 38.69 62.27 72.84 H 140 C4140 0
16881 H 38.64 60.73 72.64 H 140 C4140 0
16882 C 34.37 64.37 74.33 C.3 140 C4140 0
16883 C 35.34 64.42 73.32 C.3 140 C4140 0
16884 H 33.8 65.13 74.26 H 140 C4140 0
16885 H 35.93 65.14 73.48 H 140 C4140 0
16886 H 34.91 64.53 72.48 H 140 C4140 0
16887 C1 36.14 63.1 73.31 C.3 140 C4140 0
16888 O2 36.34 62.51 72.25 O.3 140 C4140 0
16889 O3 36.61 62.59 74.48 O.3 140 C4140 0
16890 C 35.06 64.37 75.7 C.3 140 C4140 0
16891 H 34.4 64.34 76.39 H 140 C4140 0
16892 H 35.62 63.61 75.77 H 140 C4140 0
16893 H 35.58 65.16 75.8 H 140 C4140 0
16894 C 31.3 61.36 74.53 C.3 140 C4140 0
16895 C 32.27 61.43 75.53 C.3 140 C4140 0
16896 H 30.73 60.61 74.68 H 140 C4140 0
16897 H 32.86 60.68 75.45 H 140 C4140 0
16898 H 31.85 61.4 76.38 H 140 C4140 0
16899 C1 33.07 62.74 75.39 C.3 140 C4140 0
16900 O2 33.27 63.44 76.38 O.3 140 C4140 0
16901 O3 33.54 63.11 74.18 O.3 140 C4140 0
16902 C 31.99 61.21 73.16 C.3 140 C4140 0
16903 H 31.33 61.16 72.47 H 140 C4140 0
16904 H 32.56 61.96 73 H 140 C4140 0
16905 H 32.51 60.41 73.15 H 140 C4140 0
16906 C 28.23 64.33 74 C.3 140 C4140 0
16907 C 29.2 64.16 73 C.3 140 C4140 0
16908 H 27.67 65.06 73.76 H 140 C4140 0
16909 H 29.79 64.9 73 H 140 C4140 0
16910 H 28.78 64.08 72.16 H 140 C4140 0
16911 C1 30 62.87 73.29 C.3 140 C4140 0
16912 O2 30.21 62.06 72.38 O.3 140 C4140 0
16913 O3 30.48 62.63 74.54 O.3 140 C4140 0
16914 C 28.92 64.63 75.34 C.3 140 C4140 0
16915 H 28.27 64.75 76.01 H 140 C4140 0
16916 H 29.49 63.91 75.57 H 140 C4140 0
16917 H 29.44 65.43 75.26 H 140 C4140 0
16918 C 25.17 61.44 74.85 C.3 140 C4140 0
16919 C 26.14 61.72 75.82 C.3 140 C4140 0
16920 H 24.6 60.74 75.17 H 140 C4140 0
16921 H 26.73 60.98 75.9 H 140 C4140 0
16922 H 25.71 61.89 76.65 H 140 C4140 0
16923 C1 26.93 62.97 75.39 C.3 140 C4140 0
16924 O2 27.14 63.87 76.2 O.3 140 C4140 0
16925 O3 27.41 63.07 74.13 O.3 140 C4140 0
16926 C 25.86 60.99 73.55 C.3 140 C4140 0
16927 H 25.2 60.8 72.89 H 140 C4140 0
16928 H 26.42 61.68 73.24 H 140 C4140 0
16929 H 26.37 60.21 73.72 H 140 C4140 0
16930 C 22.1 64.22 73.68 C.3 140 C4140 0
16931 C 23.07 63.83 72.75 C.3 140 C4140 0
16932 H 21.53 64.88 73.29 H 140 C4140 0
16933 H 23.66 64.55 72.58 H 140 C4140 0
16934 H 22.64 63.57 71.94 H 140 C4140 0
16935 C1 23.87 62.64 73.31 C.3 140 C4140 0
16936 O2 24.07 61.65 72.61 O.3 140 C4140 0
16937 O3 24.34 62.67 74.58 O.3 140 C4140 0
16938 C 22.79 64.81 74.93 C.3 140 C4140 0
16939 H 22.13 65.08 75.56 H 140 C4140 0
16940 H 23.35 64.15 75.31 H 140 C4140 0
16941 H 23.31 65.57 74.67 H 140 C4140 0
16942 C 19.03 61.58 75.15 C.3 140 C4140 0
16943 C 20 62.08 76.03 C.3 140 C4140 0
16944 H 18.46 60.98 75.61 H 140 C4140 0
16945 H 20.59 61.37 76.28 H 140 C4140 0
16946 H 19.58 62.42 76.81 H 140 C4140 0
16947 C1 20.8 63.2 75.34 C.3 140 C4140 0
16948 O2 21 64.26 75.94 O.3 140 C4140 0
16949 O3 21.27 63.02 74.08 O.3 140 C4140 0
16950 C 19.72 60.86 73.98 C.3 140 C4140 0
16951 H 19.06 60.53 73.38 H 140 C4140 0
16952 H 20.29 61.47 73.52 H 140 C4140 0
16953 H 20.24 60.14 74.32 H 140 C4140 0
16954 C 15.96 64.04 73.4 C.3 140 C4140 0
16955 C 16.93 63.46 72.58 C.3 140 C4140 0
16956 H 15.4 64.6 72.88 H 140 C4140 0
16957 H 17.52 64.13 72.26 H 140 C4140 0
16958 H 16.51 63.03 71.84 H 140 C4140 0
16959 C1 17.73 62.42 73.39 C.3 140 C4140 0
16960 O2 17.94 61.3 72.92 O.3 140 C4140 0
16961 O3 18.21 62.73 74.62 O.3 140 C4140 0
16962 C 16.65 64.89 74.48 C.3 140 C4140 0
16963 H 16 65.29 75.04 H 140 C4140 0
16964 H 17.22 64.34 75.01 H 140 C4140 0
16965 H 17.17 65.57 74.07 H 140 C4140 0
16966 C 12.89 61.79 75.41 C.3 140 C4140 0
16967 C 13.87 62.47 76.17 C.3 140 C4140 0
16968 H 12.33 61.3 75.99 H 140 C4140 0
16969 H 14.45 61.84 76.56 H 140 C4140 0
16970 H 13.44 62.97 76.85 H 140 C4140 0
16971 C1 14.66 63.41 75.25 C.3 140 C4140 0
16972 O2 14.87 64.58 75.59 O.3 140 C4140 0
16973 O3 15.14 62.96 74.06 O.3 140 C4140 0
16974 C 13.59 60.83 74.43 C.3 140 C4140 0
16975 H 12.93 60.37 73.92 H 140 C4140 0
16976 H 14.15 61.32 73.85 H 140 C4140 0
16977 H 14.1 60.2 74.92 H 140 C4140 0
16978 C 9.83 63.81 73.16 C.3 140 C4140 0
16979 C 10.8 63.05 72.49 C.3 140 C4140 0
16980 H 9.26 64.23 72.53 H 140 C4140 0
16981 H 11.39 63.64 72.03 H 140 C4140 0
16982 H 10.37 62.47 71.87 H 140 C4140 0
16983 C1 11.59 62.22 73.51 C.3 140 C4140 0
16984 O2 11.8 61.02 73.29 O.3 140 C4140 0
16985 O3 12.07 62.8 74.64 O.3 140 C4140 0
16986 C 10.52 64.87 74.03 C.3 140 C4140 0
16987 H 9.86 65.38 74.49 H 140 C4140 0
16988 H 11.08 64.45 74.67 H 140 C4140 0
16989 H 11.04 65.45 73.48 H 140 C4140 0
16990 C 6.76 62.06 75.62 C.3 140 C4140 0
16991 C 7.73 62.88 76.21 C.3 140 C4140 0
16992 H 6.19 61.7 76.3 H 140 C4140 0
16993 H 8.32 62.35 76.73 H 140 C4140 0
16994 H 7.31 63.52 76.76 H 140 C4140 0
16995 C1 8.53 63.6 75.1 C.3 140 C4140 0
16996 O2 8.73 64.81 75.18 O.3 140 C4140 0
16997 O3 9 62.9 74.04 O.3 140 C4140 0
16998 C 7.45 60.9 74.87 C.3 140 C4140 0
16999 H 6.79 60.34 74.48 H 140 C4140 0
17000 H 8.02 61.25 74.2 H 140 C4140 0
17001 H 7.97 60.39 75.49 H 140 C4140 0
17002 H 3.17 63.09 73.65 H 141 C4141 0
17003 C 3.69 63.52 72.98 C.3 141 C4141 0
17004 C 4.66 62.64 72.49 C.3 141 C4141 0
17005 H 3.13 63.8 72.27 H 141 C4141 0
17006 H 5.25 63.11 71.92 H 141 C4141 0
17007 H 4.24 61.94 72.01 H 141 C4141 0
17008 C1 5.46 62.05 73.67 C.3 141 C4141 0
17009 O2 5.67 60.84 73.73 O.3 141 C4141 0
17010 O3 5.94 62.86 74.65 O.3 141 C4141 0
17011 C 4.38 64.76 73.6 C.3 141 C4141 0
17012 H 3.72 65.35 73.93 H 141 C4141 0
17013 H 4.95 64.48 74.31 H 141 C4141 0
17014 H 4.9 65.19 72.93 H 141 C4141 0
17015 C 92.65 63.61 84.46 C.3 142 C4142 0
17016 C 93.62 62.77 83.91 C.3 142 C4142 0
17017 H 92.09 63.94 83.77 H 142 C4142 0
17018 H 94.21 63.28 83.37 H 142 C4142 0
17019 H 93.2 62.1 83.38 H 142 C4142 0
17020 C1 94.42 62.09 85.04 C.3 142 C4142 0
17021 O2 94.63 60.88 85.01 O.3 142 C4142 0
17022 O3 94.9 62.83 86.07 O.3 142 C4142 0
17023 H5 95.42 62.28 86.65 H 142 C4142 0
17024 C 93.34 64.79 85.17 C.3 142 C4142 0
17025 H 92.68 65.37 85.54 H 142 C4142 0
17026 H 93.91 64.47 85.85 H 142 C4142 0
17027 H 93.86 65.28 84.53 H 142 C4142 0
17028 C 89.58 62.25 87.15 C.3 143 C4143 0
17029 C 90.55 63.15 87.61 C.3 143 C4143 0
17030 H 89.02 62 87.87 H 143 C4143 0
17031 H 91.15 62.7 88.21 H 143 C4143 0
17032 H 90.13 63.87 88.06 H 143 C4143 0
17033 C1 91.35 63.69 86.41 C.3 143 C4143 0
17034 O2 91.56 64.9 86.31 O.3 143 C4143 0
17035 O3 91.83 62.84 85.47 O.3 143 C4143 0
17036 C 90.28 60.99 86.59 C.3 143 C4143 0
17037 H 89.62 60.38 86.28 H 143 C4143 0
17038 H 90.84 61.24 85.87 H 143 C4143 0
17039 H 90.79 60.58 87.27 H 143 C4143 0
17040 C 86.52 63.31 84.33 C.3 143 C4143 0
17041 C 87.49 62.36 83.97 C.3 143 C4143 0
17042 H 85.95 63.47 83.58 H 143 C4143 0
17043 H 88.08 62.74 83.33 H 143 C4143 0
17044 H 87.06 61.6 83.6 H 143 C4143 0
17045 C1 88.28 61.95 85.23 C.3 143 C4143 0
17046 O2 88.49 60.76 85.46 O.3 143 C4143 0
17047 O3 88.76 62.9 86.07 O.3 143 C4143 0
17048 C 87.21 64.62 84.75 C.3 143 C4143 0
17049 H 86.55 65.26 84.99 H 143 C4143 0
17050 H 87.77 64.45 85.5 H 143 C4143 0
17051 H 87.73 64.95 84.03 H 143 C4143 0
17052 C 83.45 62.57 87.25 C.3 143 C4143 0
17053 C 84.42 63.54 87.5 C.3 143 C4143 0
17054 H 82.88 62.48 88.01 H 143 C4143 0
17055 H 85.01 63.24 88.18 H 143 C4143 0
17056 H 84 64.35 87.79 H 143 C4143 0
17057 C1 85.22 63.82 86.21 C.3 143 C4143 0
17058 O2 85.42 64.97 85.85 O.3 143 C4143 0
17059 O3 85.69 62.78 85.48 O.3 143 C4143 0
17060 C 84.14 61.22 86.98 C.3 143 C4143 0
17061 H 83.48 60.55 86.81 H 143 C4143 0
17062 H 84.71 61.3 86.22 H 143 C4143 0
17063 H 84.66 60.97 87.73 H 143 C4143 0
17064 C 80.38 62.98 84.26 C.3 143 C4143 0
17065 C 81.35 61.98 84.13 C.3 143 C4143 0
17066 H 79.82 62.98 83.5 H 143 C4143 0
17067 H 81.94 62.21 83.42 H 143 C4143 0
17068 H 80.93 61.15 83.93 H 143 C4143 0
17069 C1 82.15 61.85 85.44 C.3 143 C4143 0
17070 O2 82.36 60.74 85.93 O.3 143 C4143 0
17071 O3 82.63 62.97 86.05 O.3 143 C4143 0
17072 C 81.07 64.35 84.39 C.3 143 C4143 0
17073 H 80.41 65.03 84.49 H 143 C4143 0
17074 H 81.64 64.35 85.15 H 143 C4143 0
17075 H 81.59 64.52 83.61 H 143 C4143 0
17076 C 77.31 62.9 87.28 C.3 143 C4143 0
17077 C 78.28 63.91 87.31 C.3 143 C4143 0
17078 H 76.75 62.98 88.04 H 143 C4143 0
17079 H 78.88 63.76 88.04 H 143 C4143 0
17080 H 77.86 64.75 87.41 H 143 C4143 0
17081 C1 79.08 63.89 85.99 C.3 143 C4143 0
17082 O2 79.29 64.94 85.38 O.3 143 C4143 0
17083 O3 79.56 62.71 85.5 O.3 143 C4143 0
17084 C 78.01 61.52 87.31 C.3 143 C4143 0
17085 H 77.35 60.84 87.29 H 143 C4143 0
17086 H 78.57 61.44 86.55 H 143 C4143 0
17087 H 78.52 61.44 88.1 H 143 C4143 0
17088 C 74.25 62.65 84.27 C.3 143 C4143 0
17089 C 75.22 61.64 84.36 C.3 143 C4143 0
17090 H 73.68 62.48 83.53 H 143 C4143 0
17091 H 75.81 61.7 83.62 H 143 C4143 0
17092 H 74.79 60.79 84.35 H 143 C4143 0
17093 C1 76.01 61.8 85.67 C.3 143 C4143 0
17094 O2 76.22 60.83 86.39 O.3 143 C4143 0
17095 O3 76.49 63.03 86.02 O.3 143 C4143 0
17096 C 74.94 64.01 84.1 C.3 143 C4143 0
17097 H 74.28 64.69 84.04 H 143 C4143 0
17098 H 75.5 64.18 84.84 H 143 C4143 0
17099 H 75.46 64 83.3 H 143 C4143 0
17100 C 71.18 63.23 87.24 C.3 143 C4143 0
17101 C 72.15 64.22 87.04 C.3 143 C4143 0
17102 H 70.61 63.48 87.96 H 143 C4143 0
17103 H 72.74 64.24 87.78 H 143 C4143 0
17104 H 71.73 65.07 86.95 H 143 C4143 0
17105 C1 72.95 63.91 85.76 C.3 143 C4143 0
17106 O2 73.15 64.8 84.93 O.3 143 C4143 0
17107 O3 73.42 62.66 85.54 O.3 143 C4143 0
17108 C 71.87 61.89 87.56 C.3 143 C4143 0
17109 H 71.21 61.22 87.7 H 143 C4143 0
17110 H 72.44 61.65 86.84 H 143 C4143 0
17111 H 72.39 61.99 88.35 H 143 C4143 0
17112 C 68.11 62.32 84.36 C.3 143 C4143 0
17113 C 69.08 61.36 84.66 C.3 143 C4143 0
17114 H 67.55 61.99 83.67 H 143 C4143 0
17115 H 69.67 61.26 83.92 H 143 C4143 0
17116 H 68.66 60.53 84.84 H 143 C4143 0
17117 C1 69.88 61.81 85.9 C.3 143 C4143 0
17118 O2 70.09 61.02 86.82 O.3 143 C4143 0
17119 O3 70.36 63.08 85.98 O.3 143 C4143 0
17120 C 68.8 63.61 83.88 C.3 143 C4143 0
17121 H 68.14 64.27 83.68 H 143 C4143 0
17122 H 69.37 63.94 84.57 H 143 C4143 0
17123 H 69.32 63.43 83.11 H 143 C4143 0
17124 C 65.04 63.54 87.12 C.3 143 C4143 0
17125 C 66.01 64.47 86.71 C.3 143 C4143 0
17126 H 64.48 63.95 87.77 H 143 C4143 0
17127 H 66.6 64.65 87.43 H 143 C4143 0
17128 H 65.59 65.27 86.44 H 143 C4143 0
17129 C1 66.81 63.89 85.53 C.3 143 C4143 0
17130 O2 67.02 64.57 84.53 O.3 143 C4143 0
17131 O3 67.29 62.61 85.59 O.3 143 C4143 0
17132 C 65.74 62.31 87.73 C.3 143 C4143 0
17133 H 65.08 61.69 88.01 H 143 C4143 0
17134 H 66.3 61.91 87.08 H 143 C4143 0
17135 H 66.25 62.58 88.48 H 143 C4143 0
17136 C 61.98 62.03 84.51 C.3 143 C4143 0
17137 C 62.95 61.15 85.02 C.3 143 C4143 0
17138 H 61.41 61.55 83.91 H 143 C4143 0
17139 H 63.54 60.89 84.32 H 143 C4143 0
17140 H 62.52 60.38 85.38 H 143 C4143 0
17141 C1 63.74 61.86 86.13 C.3 143 C4143 0
17142 O2 63.95 61.29 87.2 O.3 143 C4143 0
17143 O3 64.22 63.12 85.93 O.3 143 C4143 0
17144 C 62.67 63.18 83.76 C.3 143 C4143 0
17145 H 62.01 63.77 83.42 H 143 C4143 0
17146 H 63.23 63.65 84.36 H 143 C4143 0
17147 H 63.19 62.83 83.05 H 143 C4143 0
17148 C 58.91 63.82 86.93 C.3 143 C4143 0
17149 C 59.88 64.63 86.33 C.3 143 C4143 0
17150 H 58.34 64.36 87.48 H 143 C4143 0
17151 H 60.47 64.97 87 H 143 C4143 0
17152 H 59.46 65.36 85.89 H 143 C4143 0
17153 C1 60.68 63.81 85.31 C.3 143 C4143 0
17154 O2 60.88 64.26 84.18 O.3 143 C4143 0
17155 O3 61.15 62.58 85.65 O.3 143 C4143 0
17156 C 59.6 62.76 87.8 C.3 143 C4143 0
17157 H 58.94 62.21 88.21 H 143 C4143 0
17158 H 60.17 62.22 87.26 H 143 C4143 0
17159 H 60.12 63.18 88.48 H 143 C4143 0
17160 C 55.84 61.77 84.72 C.3 143 C4143 0
17161 C 56.81 61.03 85.41 C.3 143 C4143 0
17162 H 55.27 61.18 84.24 H 143 C4143 0
17163 H 57.4 60.62 84.79 H 143 C4143 0
17164 H 56.39 60.36 85.93 H 143 C4143 0
17165 C1 57.61 61.96 86.34 C.3 143 C4143 0
17166 O2 57.81 61.64 87.51 O.3 143 C4143 0
17167 O3 58.09 63.15 85.86 O.3 143 C4143 0
17168 C 56.53 62.73 83.74 C.3 143 C4143 0
17169 H 55.87 63.24 83.28 H 143 C4143 0
17170 H 57.1 63.32 84.22 H 143 C4143 0
17171 H 57.05 62.24 83.12 H 143 C4143 0
17172 C 52.77 64.06 86.69 C.3 143 C4143 0
17173 C 53.74 64.72 85.93 C.3 143 C4143 0
17174 H 52.21 64.7 87.11 H 143 C4143 0
17175 H 54.33 65.19 86.5 H 143 C4143 0
17176 H 53.32 65.33 85.34 H 143 C4143 0
17177 C1 54.54 63.68 85.11 C.3 143 C4143 0
17178 O2 54.75 63.87 83.91 O.3 143 C4143 0
17179 O3 55.02 62.56 85.71 O.3 143 C4143 0
17180 C 53.46 63.21 87.78 C.3 143 C4143 0
17181 H 52.81 62.76 88.29 H 143 C4143 0
17182 H 54.03 62.57 87.36 H 143 C4143 0
17183 H 53.98 63.77 88.34 H 143 C4143 0
17184 C 49.71 61.57 84.99 C.3 143 C4143 0
17185 C 50.68 60.99 85.82 C.3 143 C4143 0
17186 H 49.14 60.88 84.65 H 143 C4143 0
17187 H 51.27 60.46 85.3 H 143 C4143 0
17188 H 50.25 60.45 86.48 H 143 C4143 0
17189 C1 51.47 62.11 86.52 C.3 143 C4143 0
17190 O2 51.68 62.06 87.73 O.3 143 C4143 0
17191 O3 51.95 63.16 85.8 O.3 143 C4143 0
17192 C 50.4 62.29 83.82 C.3 143 C4143 0
17193 H 49.74 62.68 83.25 H 143 C4143 0
17194 H 50.96 62.97 84.16 H 143 C4143 0
17195 H 50.91 61.67 83.32 H 143 C4143 0
17196 C 46.64 64.23 86.41 C.3 143 C4143 0
17197 C 47.61 64.71 85.52 C.3 143 C4143 0
17198 H 46.07 64.95 86.67 H 143 C4143 0
17199 H 48.2 65.29 85.97 H 143 C4143 0
17200 H 47.19 65.17 84.81 H 143 C4143 0
17201 C1 48.41 63.52 84.95 C.3 143 C4143 0
17202 O2 48.61 63.44 83.74 O.3 143 C4143 0
17203 O3 48.88 62.55 85.78 O.3 143 C4143 0
17204 C 47.33 63.64 87.65 C.3 143 C4143 0
17205 H 46.67 63.32 88.25 H 143 C4143 0
17206 H 47.9 62.92 87.39 H 143 C4143 0
17207 H 47.85 64.31 88.07 H 143 C4143 0
17208 C 43.57 61.43 85.29 C.3 143 C4143 0
17209 C 44.54 61.05 86.23 C.3 143 C4143 0
17210 H 43.01 60.68 85.11 H 143 C4143 0
17211 H 45.13 60.42 85.84 H 143 C4143 0
17212 H 44.12 60.67 86.99 H 143 C4143 0
17213 C1 45.34 62.3 86.67 C.3 143 C4143 0
17214 O2 45.54 62.51 87.86 O.3 143 C4143 0
17215 O3 45.82 63.16 85.73 O.3 143 C4143 0
17216 C 44.26 61.88 83.99 C.3 143 C4143 0
17217 H 43.6 62.13 83.36 H 143 C4143 0
17218 H 44.83 62.62 84.17 H 143 C4143 0
17219 H 44.78 61.16 83.64 H 143 C4143 0
17220 C 40.5 64.34 86.09 C.3 143 C4143 0
17221 C 41.47 64.6 85.12 C.3 143 C4143 0
17222 H 39.94 65.09 86.19 H 143 C4143 0
17223 H 42.06 65.28 85.43 H 143 C4143 0
17224 H 41.05 64.9 84.32 H 143 C4143 0
17225 C1 42.27 63.32 84.82 C.3 143 C4143 0
17226 O2 42.48 62.98 83.66 O.3 143 C4143 0
17227 O3 42.75 62.56 85.85 O.3 143 C4143 0
17228 C 41.19 64.03 87.43 C.3 143 C4143 0
17229 H 40.54 63.85 88.09 H 143 C4143 0
17230 H 41.76 63.28 87.33 H 143 C4143 0
17231 H 41.71 64.78 87.7 H 143 C4143 0
17232 C 37.44 61.36 85.62 C.3 143 C4143 0
17233 C 38.41 61.2 86.62 C.3 143 C4143 0
17234 H 36.87 60.59 85.61 H 143 C4143 0
17235 H 39 60.49 86.38 H 143 C4143 0
17236 H 37.98 60.99 87.44 H 143 C4143 0
17237 C1 39.2 62.51 86.77 C.3 143 C4143 0
17238 O2 39.41 62.98 87.89 O.3 143 C4143 0
17239 O3 39.68 63.15 85.67 O.3 143 C4143 0
17240 C 38.13 61.51 84.25 C.3 143 C4143 0
17241 H 37.47 61.62 83.58 H 143 C4143 0
17242 H 38.69 62.27 84.27 H 143 C4143 0
17243 H 38.64 60.73 84.07 H 143 C4143 0
17244 C 34.37 64.37 85.76 C.3 143 C4143 0
17245 C 35.34 64.42 84.75 C.3 143 C4143 0
17246 H 33.8 65.13 85.69 H 143 C4143 0
17247 H 35.93 65.14 84.91 H 143 C4143 0
17248 H 34.91 64.53 83.91 H 143 C4143 0
17249 C1 36.14 63.1 84.74 C.3 143 C4143 0
17250 O2 36.34 62.51 83.68 O.3 143 C4143 0
17251 O3 36.61 62.59 85.91 O.3 143 C4143 0
17252 C 35.06 64.37 87.13 C.3 143 C4143 0
17253 H 34.4 64.34 87.82 H 143 C4143 0
17254 H 35.62 63.61 87.2 H 143 C4143 0
17255 H 35.58 65.16 87.23 H 143 C4143 0
17256 C 31.3 61.36 85.96 C.3 143 C4143 0
17257 C 32.27 61.43 86.96 C.3 143 C4143 0
17258 H 30.73 60.61 86.11 H 143 C4143 0
17259 H 32.86 60.68 86.88 H 143 C4143 0
17260 H 31.85 61.4 87.81 H 143 C4143 0
17261 C1 33.07 62.74 86.82 C.3 143 C4143 0
17262 O2 33.27 63.44 87.81 O.3 143 C4143 0
17263 O3 33.54 63.11 85.61 O.3 143 C4143 0
17264 C 31.99 61.21 84.59 C.3 143 C4143 0
17265 H 31.33 61.16 83.9 H 143 C4143 0
17266 H 32.56 61.96 84.43 H 143 C4143 0
17267 H 32.51 60.41 84.58 H 143 C4143 0
17268 C 28.23 64.33 85.43 C.3 143 C4143 0
17269 C 29.2 64.16 84.43 C.3 143 C4143 0
17270 H 27.67 65.06 85.19 H 143 C4143 0
17271 H 29.79 64.9 84.43 H 143 C4143 0
17272 H 28.78 64.08 83.59 H 143 C4143 0
17273 C1 30 62.87 84.72 C.3 143 C4143 0
17274 O2 30.21 62.06 83.81 O.3 143 C4143 0
17275 O3 30.48 62.63 85.97 O.3 143 C4143 0
17276 C 28.92 64.63 86.77 C.3 143 C4143 0
17277 H 28.27 64.75 87.44 H 143 C4143 0
17278 H 29.49 63.91 87 H 143 C4143 0
17279 H 29.44 65.43 86.69 H 143 C4143 0
17280 C 25.17 61.44 86.28 C.3 143 C4143 0
17281 C 26.14 61.72 87.25 C.3 143 C4143 0
17282 H 24.6 60.74 86.6 H 143 C4143 0
17283 H 26.73 60.98 87.33 H 143 C4143 0
17284 H 25.71 61.89 88.08 H 143 C4143 0
17285 C1 26.93 62.97 86.82 C.3 143 C4143 0
17286 O2 27.14 63.87 87.63 O.3 143 C4143 0
17287 O3 27.41 63.07 85.56 O.3 143 C4143 0
17288 C 25.86 60.99 84.98 C.3 143 C4143 0
17289 H 25.2 60.8 84.32 H 143 C4143 0
17290 H 26.42 61.68 84.67 H 143 C4143 0
17291 H 26.37 60.21 85.15 H 143 C4143 0
17292 C 22.1 64.22 85.11 C.3 143 C4143 0
17293 C 23.07 63.83 84.18 C.3 143 C4143 0
17294 H 21.53 64.88 84.72 H 143 C4143 0
17295 H 23.66 64.55 84.01 H 143 C4143 0
17296 H 22.64 63.57 83.37 H 143 C4143 0
17297 C1 23.87 62.64 84.74 C.3 143 C4143 0
17298 O2 24.07 61.65 84.04 O.3 143 C4143 0
17299 O3 24.34 62.67 86.01 O.3 143 C4143 0
17300 C 22.79 64.81 86.36 C.3 143 C4143 0
17301 H 22.13 65.08 86.99 H 143 C4143 0
17302 H 23.35 64.15 86.74 H 143 C4143 0
17303 H 23.31 65.57 86.1 H 143 C4143 0
17304 C 19.03 61.58 86.58 C.3 143 C4143 0
17305 C 20 62.08 87.46 C.3 143 C4143 0
17306 H 18.46 60.98 87.04 H 143 C4143 0
17307 H 20.59 61.37 87.71 H 143 C4143 0
17308 H 19.58 62.42 88.24 H 143 C4143 0
17309 C1 20.8 63.2 86.77 C.3 143 C4143 0
17310 O2 21 64.26 87.37 O.3 143 C4143 0
17311 O3 21.27 63.02 85.51 O.3 143 C4143 0
17312 C 19.72 60.86 85.41 C.3 143 C4143 0
17313 H 19.06 60.53 84.81 H 143 C4143 0
17314 H 20.29 61.47 84.95 H 143 C4143 0
17315 H 20.24 60.14 85.75 H 143 C4143 0
17316 C 15.96 64.04 84.83 C.3 143 C4143 0
17317 C 16.93 63.46 84.01 C.3 143 C4143 0
17318 H 15.4 64.6 84.31 H 143 C4143 0
17319 H 17.52 64.13 83.69 H 143 C4143 0
17320 H 16.51 63.03 83.27 H 143 C4143 0
17321 C1 17.73 62.42 84.82 C.3 143 C4143 0
17322 O2 17.94 61.3 84.35 O.3 143 C4143 0
17323 O3 18.21 62.73 86.05 O.3 143 C4143 0
17324 C 16.65 64.89 85.91 C.3 143 C4143 0
17325 H 16 65.29 86.47 H 143 C4143 0
17326 H 17.22 64.34 86.44 H 143 C4143 0
17327 H 17.17 65.57 85.5 H 143 C4143 0
17328 C 12.89 61.79 86.84 C.3 143 C4143 0
17329 C 13.87 62.47 87.6 C.3 143 C4143 0
17330 H 12.33 61.3 87.42 H 143 C4143 0
17331 H 14.45 61.84 87.99 H 143 C4143 0
17332 H 13.44 62.97 88.28 H 143 C4143 0
17333 C1 14.66 63.41 86.68 C.3 143 C4143 0
17334 O2 14.87 64.58 87.02 O.3 143 C4143 0
17335 O3 15.14 62.96 85.49 O.3 143 C4143 0
17336 C 13.59 60.83 85.86 C.3 143 C4143 0
17337 H 12.93 60.37 85.35 H 143 C4143 0
17338 H 14.15 61.32 85.28 H 143 C4143 0
17339 H 14.1 60.2 86.35 H 143 C4143 0
17340 C 9.83 63.81 84.59 C.3 143 C4143 0
17341 C 10.8 63.05 83.92 C.3 143 C4143 0
17342 H 9.26 64.23 83.96 H 143 C4143 0
17343 H 11.39 63.64 83.46 H 143 C4143 0
17344 H 10.37 62.47 83.3 H 143 C4143 0
17345 C1 11.59 62.22 84.94 C.3 143 C4143 0
17346 O2 11.8 61.02 84.72 O.3 143 C4143 0
17347 O3 12.07 62.8 86.07 O.3 143 C4143 0
17348 C 10.52 64.87 85.46 C.3 143 C4143 0
17349 H 9.86 65.38 85.92 H 143 C4143 0
17350 H 11.08 64.45 86.1 H 143 C4143 0
17351 H 11.04 65.45 84.91 H 143 C4143 0
17352 C 6.76 62.06 87.05 C.3 143 C4143 0
17353 C 7.73 62.88 87.64 C.3 143 C4143 0
17354 H 6.19 61.7 87.73 H 143 C4143 0
17355 H 8.32 62.35 88.16 H 143 C4143 0
17356 H 7.31 63.52 88.19 H 143 C4143 0
17357 C1 8.53 63.6 86.53 C.3 143 C4143 0
17358 O2 8.73 64.81 86.61 O.3 143 C4143 0
17359 O3 9 62.9 85.47 O.3 143 C4143 0
17360 C 7.45 60.9 86.3 C.3 143 C4143 0
17361 H 6.79 60.34 85.91 H 143 C4143 0
17362 H 8.02 61.25 85.63 H 143 C4143 0
17363 H 7.97 60.39 86.92 H 143 C4143 0
17364 H 3.17 63.09 85.08 H 144 C4144 0
17365 C 3.69 63.52 84.41 C.3 144 C4144 0
17366 C 4.66 62.64 83.92 C.3 144 C4144 0
17367 H 3.13 63.8 83.7 H 144 C4144 0
17368 H 5.25 63.11 83.35 H 144 C4144 0
17369 H 4.24 61.94 83.44 H 144 C4144 0
17370 C1 5.46 62.05 85.1 C.3 144 C4144 0
17371 O2 5.67 60.84 85.16 O.3 144 C4144 0
17372 O3 5.94 62.86 86.08 O.3 144 C4144 0
17373 C 4.38 64.76 85.03 C.3 144 C4144 0
17374 H 3.72 65.35 85.36 H 144 C4144 0
17375 H 4.95 64.48 85.74 H 144 C4144 0
17376 H 4.9 65.19 84.36 H 144 C4144 0
17377 C 92.65 75.04 4.44 C.3 145 C4145 0
17378 C 93.62 74.2 3.89 C.3 145 C4145 0
17379 H 92.09 75.37 3.75 H 145 C4145 0
17380 H 94.21 74.71 3.35 H 145 C4145 0
17381 H 93.2 73.53 3.36 H 145 C4145 0
17382 C1 94.42 73.52 5.02 C.3 145 C4145 0
17383 O2 94.63 72.31 4.99 O.3 145 C4145 0
17384 O3 94.9 74.26 6.05 O.3 145 C4145 0
17385 H5 95.42 73.71 6.63 H 145 C4145 0
17386 C 93.34 76.22 5.15 C.3 145 C4145 0
17387 H 92.68 76.8 5.52 H 145 C4145 0
17388 H 93.91 75.9 5.83 H 145 C4145 0
17389 H 93.86 76.71 4.51 H 145 C4145 0
17390 C 89.58 73.68 7.13 C.3 146 C4146 0
17391 C 90.55 74.58 7.59 C.3 146 C4146 0
17392 H 89.02 73.43 7.85 H 146 C4146 0
17393 H 91.15 74.13 8.19 H 146 C4146 0
17394 H 90.13 75.3 8.04 H 146 C4146 0
17395 C1 91.35 75.12 6.39 C.3 146 C4146 0
17396 O2 91.56 76.33 6.29 O.3 146 C4146 0
17397 O3 91.83 74.27 5.45 O.3 146 C4146 0
17398 C 90.28 72.42 6.57 C.3 146 C4146 0
17399 H 89.62 71.81 6.26 H 146 C4146 0
17400 H 90.84 72.67 5.85 H 146 C4146 0
17401 H 90.79 72.01 7.25 H 146 C4146 0
17402 C 86.52 74.74 4.31 C.3 146 C4146 0
17403 C 87.49 73.79 3.95 C.3 146 C4146 0
17404 H 85.95 74.9 3.56 H 146 C4146 0
17405 H 88.08 74.17 3.31 H 146 C4146 0
17406 H 87.06 73.03 3.58 H 146 C4146 0
17407 C1 88.28 73.38 5.21 C.3 146 C4146 0
17408 O2 88.49 72.19 5.44 O.3 146 C4146 0
17409 O3 88.76 74.33 6.05 O.3 146 C4146 0
17410 C 87.21 76.05 4.73 C.3 146 C4146 0
17411 H 86.55 76.69 4.97 H 146 C4146 0
17412 H 87.77 75.88 5.48 H 146 C4146 0
17413 H 87.73 76.38 4.01 H 146 C4146 0
17414 C 83.45 74 7.23 C.3 146 C4146 0
17415 C 84.42 74.97 7.48 C.3 146 C4146 0
17416 H 82.88 73.91 7.99 H 146 C4146 0
17417 H 85.01 74.67 8.16 H 146 C4146 0
17418 H 84 75.78 7.77 H 146 C4146 0
17419 C1 85.22 75.25 6.19 C.3 146 C4146 0
17420 O2 85.42 76.4 5.83 O.3 146 C4146 0
17421 O3 85.69 74.21 5.46 O.3 146 C4146 0
17422 C 84.14 72.65 6.96 C.3 146 C4146 0
17423 H 83.48 71.98 6.79 H 146 C4146 0
17424 H 84.71 72.73 6.2 H 146 C4146 0
17425 H 84.66 72.4 7.71 H 146 C4146 0
17426 C 80.38 74.41 4.24 C.3 146 C4146 0
17427 C 81.35 73.41 4.11 C.3 146 C4146 0
17428 H 79.82 74.41 3.48 H 146 C4146 0
17429 H 81.94 73.64 3.4 H 146 C4146 0
17430 H 80.93 72.58 3.91 H 146 C4146 0
17431 C1 82.15 73.28 5.42 C.3 146 C4146 0
17432 O2 82.36 72.17 5.91 O.3 146 C4146 0
17433 O3 82.63 74.4 6.03 O.3 146 C4146 0
17434 C 81.07 75.78 4.37 C.3 146 C4146 0
17435 H 80.41 76.46 4.47 H 146 C4146 0
17436 H 81.64 75.78 5.13 H 146 C4146 0
17437 H 81.59 75.95 3.59 H 146 C4146 0
17438 C 77.31 74.33 7.26 C.3 146 C4146 0
17439 C 78.28 75.34 7.29 C.3 146 C4146 0
17440 H 76.75 74.41 8.02 H 146 C4146 0
17441 H 78.88 75.19 8.02 H 146 C4146 0
17442 H 77.86 76.18 7.39 H 146 C4146 0
17443 C1 79.08 75.32 5.97 C.3 146 C4146 0
17444 O2 79.29 76.37 5.36 O.3 146 C4146 0
17445 O3 79.56 74.14 5.48 O.3 146 C4146 0
17446 C 78.01 72.95 7.29 C.3 146 C4146 0
17447 H 77.35 72.27 7.27 H 146 C4146 0
17448 H 78.57 72.87 6.53 H 146 C4146 0
17449 H 78.52 72.87 8.08 H 146 C4146 0
17450 C 74.25 74.08 4.25 C.3 146 C4146 0
17451 C 75.22 73.07 4.34 C.3 146 C4146 0
17452 H 73.68 73.91 3.51 H 146 C4146 0
17453 H 75.81 73.13 3.6 H 146 C4146 0
17454 H 74.79 72.22 4.33 H 146 C4146 0
17455 C1 76.01 73.23 5.65 C.3 146 C4146 0
17456 O2 76.22 72.26 6.37 O.3 146 C4146 0
17457 O3 76.49 74.46 6 O.3 146 C4146 0
17458 C 74.94 75.44 4.08 C.3 146 C4146 0
17459 H 74.28 76.12 4.02 H 146 C4146 0
17460 H 75.5 75.61 4.82 H 146 C4146 0
17461 H 75.46 75.43 3.28 H 146 C4146 0
17462 C 71.18 74.66 7.22 C.3 146 C4146 0
17463 C 72.15 75.65 7.02 C.3 146 C4146 0
17464 H 70.61 74.91 7.94 H 146 C4146 0
17465 H 72.74 75.67 7.76 H 146 C4146 0
17466 H 71.73 76.5 6.93 H 146 C4146 0
17467 C1 72.95 75.34 5.74 C.3 146 C4146 0
17468 O2 73.15 76.23 4.91 O.3 146 C4146 0
17469 O3 73.42 74.09 5.52 O.3 146 C4146 0
17470 C 71.87 73.32 7.54 C.3 146 C4146 0
17471 H 71.21 72.65 7.68 H 146 C4146 0
17472 H 72.44 73.08 6.82 H 146 C4146 0
17473 H 72.39 73.42 8.33 H 146 C4146 0
17474 C 68.11 73.75 4.34 C.3 146 C4146 0
17475 C 69.08 72.79 4.64 C.3 146 C4146 0
17476 H 67.55 73.42 3.65 H 146 C4146 0
17477 H 69.67 72.69 3.9 H 146 C4146 0
17478 H 68.66 71.96 4.82 H 146 C4146 0
17479 C1 69.88 73.24 5.88 C.3 146 C4146 0
17480 O2 70.09 72.45 6.8 O.3 146 C4146 0
17481 O3 70.36 74.51 5.96 O.3 146 C4146 0
17482 C 68.8 75.04 3.86 C.3 146 C4146 0
17483 H 68.14 75.7 3.66 H 146 C4146 0
17484 H 69.37 75.37 4.55 H 146 C4146 0
17485 H 69.32 74.86 3.09 H 146 C4146 0
17486 C 65.04 74.97 7.1 C.3 146 C4146 0
17487 C 66.01 75.9 6.69 C.3 146 C4146 0
17488 H 64.48 75.38 7.75 H 146 C4146 0
17489 H 66.6 76.08 7.41 H 146 C4146 0
17490 H 65.59 76.7 6.42 H 146 C4146 0
17491 C1 66.81 75.32 5.51 C.3 146 C4146 0
17492 O2 67.02 76 4.51 O.3 146 C4146 0
17493 O3 67.29 74.04 5.57 O.3 146 C4146 0
17494 C 65.74 73.74 7.71 C.3 146 C4146 0
17495 H 65.08 73.12 7.99 H 146 C4146 0
17496 H 66.3 73.34 7.06 H 146 C4146 0
17497 H 66.25 74.01 8.46 H 146 C4146 0
17498 C 61.98 73.46 4.49 C.3 146 C4146 0
17499 C 62.95 72.58 5 C.3 146 C4146 0
17500 H 61.41 72.98 3.89 H 146 C4146 0
17501 H 63.54 72.32 4.3 H 146 C4146 0
17502 H 62.52 71.81 5.36 H 146 C4146 0
17503 C1 63.74 73.29 6.11 C.3 146 C4146 0
17504 O2 63.95 72.72 7.18 O.3 146 C4146 0
17505 O3 64.22 74.55 5.91 O.3 146 C4146 0
17506 C 62.67 74.61 3.74 C.3 146 C4146 0
17507 H 62.01 75.2 3.4 H 146 C4146 0
17508 H 63.23 75.08 4.34 H 146 C4146 0
17509 H 63.19 74.26 3.03 H 146 C4146 0
17510 C 58.91 75.25 6.91 C.3 146 C4146 0
17511 C 59.88 76.06 6.31 C.3 146 C4146 0
17512 H 58.34 75.79 7.46 H 146 C4146 0
17513 H 60.47 76.4 6.98 H 146 C4146 0
17514 H 59.46 76.79 5.87 H 146 C4146 0
17515 C1 60.68 75.24 5.29 C.3 146 C4146 0
17516 O2 60.88 75.69 4.16 O.3 146 C4146 0
17517 O3 61.15 74.01 5.63 O.3 146 C4146 0
17518 C 59.6 74.19 7.78 C.3 146 C4146 0
17519 H 58.94 73.64 8.19 H 146 C4146 0
17520 H 60.17 73.65 7.24 H 146 C4146 0
17521 H 60.12 74.61 8.46 H 146 C4146 0
17522 C 55.84 73.2 4.7 C.3 146 C4146 0
17523 C 56.81 72.46 5.39 C.3 146 C4146 0
17524 H 55.27 72.61 4.22 H 146 C4146 0
17525 H 57.4 72.05 4.77 H 146 C4146 0
17526 H 56.39 71.79 5.91 H 146 C4146 0
17527 C1 57.61 73.39 6.32 C.3 146 C4146 0
17528 O2 57.81 73.07 7.49 O.3 146 C4146 0
17529 O3 58.09 74.58 5.84 O.3 146 C4146 0
17530 C 56.53 74.16 3.72 C.3 146 C4146 0
17531 H 55.87 74.67 3.26 H 146 C4146 0
17532 H 57.1 74.75 4.2 H 146 C4146 0
17533 H 57.05 73.67 3.1 H 146 C4146 0
17534 C 52.77 75.49 6.67 C.3 146 C4146 0
17535 C 53.74 76.15 5.91 C.3 146 C4146 0
17536 H 52.21 76.13 7.09 H 146 C4146 0
17537 H 54.33 76.62 6.48 H 146 C4146 0
17538 H 53.32 76.76 5.32 H 146 C4146 0
17539 C1 54.54 75.11 5.09 C.3 146 C4146 0
17540 O2 54.75 75.3 3.89 O.3 146 C4146 0
17541 O3 55.02 73.99 5.69 O.3 146 C4146 0
17542 C 53.46 74.64 7.76 C.3 146 C4146 0
17543 H 52.81 74.19 8.27 H 146 C4146 0
17544 H 54.03 74 7.34 H 146 C4146 0
17545 H 53.98 75.2 8.32 H 146 C4146 0
17546 C 49.71 73 4.97 C.3 146 C4146 0
17547 C 50.68 72.42 5.8 C.3 146 C4146 0
17548 H 49.14 72.31 4.63 H 146 C4146 0
17549 H 51.27 71.89 5.28 H 146 C4146 0
17550 H 50.25 71.88 6.46 H 146 C4146 0
17551 C1 51.47 73.54 6.5 C.3 146 C4146 0
17552 O2 51.68 73.49 7.71 O.3 146 C4146 0
17553 O3 51.95 74.59 5.78 O.3 146 C4146 0
17554 C 50.4 73.72 3.8 C.3 146 C4146 0
17555 H 49.74 74.11 3.23 H 146 C4146 0
17556 H 50.96 74.4 4.14 H 146 C4146 0
17557 H 50.91 73.1 3.3 H 146 C4146 0
17558 C 46.64 75.66 6.39 C.3 146 C4146 0
17559 C 47.61 76.14 5.5 C.3 146 C4146 0
17560 H 46.07 76.38 6.65 H 146 C4146 0
17561 H 48.2 76.72 5.95 H 146 C4146 0
17562 H 47.19 76.6 4.79 H 146 C4146 0
17563 C1 48.41 74.95 4.93 C.3 146 C4146 0
17564 O2 48.61 74.87 3.72 O.3 146 C4146 0
17565 O3 48.88 73.98 5.76 O.3 146 C4146 0
17566 C 47.33 75.07 7.63 C.3 146 C4146 0
17567 H 46.67 74.75 8.23 H 146 C4146 0
17568 H 47.9 74.35 7.37 H 146 C4146 0
17569 H 47.85 75.74 8.05 H 146 C4146 0
17570 C 43.57 72.86 5.27 C.3 146 C4146 0
17571 C 44.54 72.48 6.21 C.3 146 C4146 0
17572 H 43.01 72.11 5.09 H 146 C4146 0
17573 H 45.13 71.85 5.82 H 146 C4146 0
17574 H 44.12 72.1 6.97 H 146 C4146 0
17575 C1 45.34 73.73 6.65 C.3 146 C4146 0
17576 O2 45.54 73.94 7.84 O.3 146 C4146 0
17577 O3 45.82 74.59 5.71 O.3 146 C4146 0
17578 C 44.26 73.31 3.97 C.3 146 C4146 0
17579 H 43.6 73.56 3.34 H 146 C4146 0
17580 H 44.83 74.05 4.15 H 146 C4146 0
17581 H 44.78 72.59 3.62 H 146 C4146 0
17582 C 40.5 75.77 6.07 C.3 146 C4146 0
17583 C 41.47 76.03 5.1 C.3 146 C4146 0
17584 H 39.94 76.52 6.17 H 146 C4146 0
17585 H 42.06 76.71 5.41 H 146 C4146 0
17586 H 41.05 76.33 4.3 H 146 C4146 0
17587 C1 42.27 74.75 4.8 C.3 146 C4146 0
17588 O2 42.48 74.41 3.64 O.3 146 C4146 0
17589 O3 42.75 73.99 5.83 O.3 146 C4146 0
17590 C 41.19 75.46 7.41 C.3 146 C4146 0
17591 H 40.54 75.28 8.07 H 146 C4146 0
17592 H 41.76 74.71 7.31 H 146 C4146 0
17593 H 41.71 76.21 7.68 H 146 C4146 0
17594 C 37.44 72.79 5.6 C.3 146 C4146 0
17595 C 38.41 72.63 6.6 C.3 146 C4146 0
17596 H 36.87 72.02 5.59 H 146 C4146 0
17597 H 39 71.92 6.36 H 146 C4146 0
17598 H 37.98 72.42 7.42 H 146 C4146 0
17599 C1 39.2 73.94 6.75 C.3 146 C4146 0
17600 O2 39.41 74.41 7.87 O.3 146 C4146 0
17601 O3 39.68 74.58 5.65 O.3 146 C4146 0
17602 C 38.13 72.94 4.23 C.3 146 C4146 0
17603 H 37.47 73.05 3.56 H 146 C4146 0
17604 H 38.69 73.7 4.25 H 146 C4146 0
17605 H 38.64 72.16 4.05 H 146 C4146 0
17606 C 34.37 75.8 5.74 C.3 146 C4146 0
17607 C 35.34 75.85 4.73 C.3 146 C4146 0
17608 H 33.8 76.56 5.67 H 146 C4146 0
17609 H 35.93 76.57 4.89 H 146 C4146 0
17610 H 34.91 75.96 3.89 H 146 C4146 0
17611 C1 36.14 74.53 4.72 C.3 146 C4146 0
17612 O2 36.34 73.94 3.66 O.3 146 C4146 0
17613 O3 36.61 74.02 5.89 O.3 146 C4146 0
17614 C 35.06 75.8 7.11 C.3 146 C4146 0
17615 H 34.4 75.77 7.8 H 146 C4146 0
17616 H 35.62 75.04 7.18 H 146 C4146 0
17617 H 35.58 76.59 7.21 H 146 C4146 0
17618 C 31.3 72.79 5.94 C.3 146 C4146 0
17619 C 32.27 72.86 6.94 C.3 146 C4146 0
17620 H 30.73 72.04 6.09 H 146 C4146 0
17621 H 32.86 72.11 6.86 H 146 C4146 0
17622 H 31.85 72.83 7.79 H 146 C4146 0
17623 C1 33.07 74.17 6.8 C.3 146 C4146 0
17624 O2 33.27 74.87 7.79 O.3 146 C4146 0
17625 O3 33.54 74.54 5.59 O.3 146 C4146 0
17626 C 31.99 72.64 4.57 C.3 146 C4146 0
17627 H 31.33 72.59 3.88 H 146 C4146 0
17628 H 32.56 73.39 4.41 H 146 C4146 0
17629 H 32.51 71.84 4.56 H 146 C4146 0
17630 C 28.23 75.76 5.41 C.3 146 C4146 0
17631 C 29.2 75.59 4.41 C.3 146 C4146 0
17632 H 27.67 76.49 5.17 H 146 C4146 0
17633 H 29.79 76.33 4.41 H 146 C4146 0
17634 H 28.78 75.51 3.57 H 146 C4146 0
17635 C1 30 74.3 4.7 C.3 146 C4146 0
17636 O2 30.21 73.49 3.79 O.3 146 C4146 0
17637 O3 30.48 74.06 5.95 O.3 146 C4146 0
17638 C 28.92 76.06 6.75 C.3 146 C4146 0
17639 H 28.27 76.18 7.42 H 146 C4146 0
17640 H 29.49 75.34 6.98 H 146 C4146 0
17641 H 29.44 76.86 6.67 H 146 C4146 0
17642 C 25.17 72.87 6.26 C.3 146 C4146 0
17643 C 26.14 73.15 7.23 C.3 146 C4146 0
17644 H 24.6 72.17 6.58 H 146 C4146 0
17645 H 26.73 72.41 7.31 H 146 C4146 0
17646 H 25.71 73.32 8.06 H 146 C4146 0
17647 C1 26.93 74.4 6.8 C.3 146 C4146 0
17648 O2 27.14 75.3 7.61 O.3 146 C4146 0
17649 O3 27.41 74.5 5.54 O.3 146 C4146 0
17650 C 25.86 72.42 4.96 C.3 146 C4146 0
17651 H 25.2 72.23 4.3 H 146 C4146 0
17652 H 26.42 73.11 4.65 H 146 C4146 0
17653 H 26.37 71.64 5.13 H 146 C4146 0
17654 C 22.1 75.65 5.09 C.3 146 C4146 0
17655 C 23.07 75.26 4.16 C.3 146 C4146 0
17656 H 21.53 76.31 4.7 H 146 C4146 0
17657 H 23.66 75.98 3.99 H 146 C4146 0
17658 H 22.64 75 3.35 H 146 C4146 0
17659 C1 23.87 74.07 4.72 C.3 146 C4146 0
17660 O2 24.07 73.08 4.02 O.3 146 C4146 0
17661 O3 24.34 74.1 5.99 O.3 146 C4146 0
17662 C 22.79 76.24 6.34 C.3 146 C4146 0
17663 H 22.13 76.51 6.97 H 146 C4146 0
17664 H 23.35 75.58 6.72 H 146 C4146 0
17665 H 23.31 77 6.08 H 146 C4146 0
17666 C 19.03 73.01 6.56 C.3 146 C4146 0
17667 C 20 73.51 7.44 C.3 146 C4146 0
17668 H 18.46 72.41 7.02 H 146 C4146 0
17669 H 20.59 72.8 7.69 H 146 C4146 0
17670 H 19.58 73.85 8.22 H 146 C4146 0
17671 C1 20.8 74.63 6.75 C.3 146 C4146 0
17672 O2 21 75.69 7.35 O.3 146 C4146 0
17673 O3 21.27 74.45 5.49 O.3 146 C4146 0
17674 C 19.72 72.29 5.39 C.3 146 C4146 0
17675 H 19.06 71.96 4.79 H 146 C4146 0
17676 H 20.29 72.9 4.93 H 146 C4146 0
17677 H 20.24 71.57 5.73 H 146 C4146 0
17678 C 15.96 75.47 4.81 C.3 146 C4146 0
17679 C 16.93 74.89 3.99 C.3 146 C4146 0
17680 H 15.4 76.03 4.29 H 146 C4146 0
17681 H 17.52 75.56 3.67 H 146 C4146 0
17682 H 16.51 74.46 3.25 H 146 C4146 0
17683 C1 17.73 73.85 4.8 C.3 146 C4146 0
17684 O2 17.94 72.73 4.33 O.3 146 C4146 0
17685 O3 18.21 74.16 6.03 O.3 146 C4146 0
17686 C 16.65 76.32 5.89 C.3 146 C4146 0
17687 H 16 76.72 6.45 H 146 C4146 0
17688 H 17.22 75.77 6.42 H 146 C4146 0
17689 H 17.17 77 5.48 H 146 C4146 0
17690 C 12.89 73.22 6.82 C.3 146 C4146 0
17691 C 13.87 73.9 7.58 C.3 146 C4146 0
17692 H 12.33 72.73 7.4 H 146 C4146 0
17693 H 14.45 73.27 7.97 H 146 C4146 0
17694 H 13.44 74.4 8.26 H 146 C4146 0
17695 C1 14.66 74.84 6.66 C.3 146 C4146 0
17696 O2 14.87 76.01 7 O.3 146 C4146 0
17697 O3 15.14 74.39 5.47 O.3 146 C4146 0
17698 C 13.59 72.26 5.84 C.3 146 C4146 0
17699 H 12.93 71.8 5.33 H 146 C4146 0
17700 H 14.15 72.75 5.26 H 146 C4146 0
17701 H 14.1 71.63 6.33 H 146 C4146 0
17702 C 9.83 75.24 4.57 C.3 146 C4146 0
17703 C 10.8 74.48 3.9 C.3 146 C4146 0
17704 H 9.26 75.66 3.94 H 146 C4146 0
17705 H 11.39 75.07 3.44 H 146 C4146 0
17706 H 10.37 73.9 3.28 H 146 C4146 0
17707 C1 11.59 73.65 4.92 C.3 146 C4146 0
17708 O2 11.8 72.45 4.7 O.3 146 C4146 0
17709 O3 12.07 74.23 6.05 O.3 146 C4146 0
17710 C 10.52 76.3 5.44 C.3 146 C4146 0
17711 H 9.86 76.81 5.9 H 146 C4146 0
17712 H 11.08 75.88 6.08 H 146 C4146 0
17713 H 11.04 76.88 4.89 H 146 C4146 0
17714 C 6.76 73.49 7.03 C.3 146 C4146 0
17715 C 7.73 74.31 7.62 C.3 146 C4146 0
17716 H 6.19 73.13 7.71 H 146 C4146 0
17717 H 8.32 73.78 8.14 H 146 C4146 0
17718 H 7.31 74.95 8.17 H 146 C4146 0
17719 C1 8.53 75.03 6.51 C.3 146 C4146 0
17720 O2 8.73 76.24 6.59 O.3 146 C4146 0
17721 O3 9 74.33 5.45 O.3 146 C4146 0
17722 C 7.45 72.33 6.28 C.3 146 C4146 0
17723 H 6.79 71.77 5.89 H 146 C4146 0
17724 H 8.02 72.68 5.61 H 146 C4146 0
17725 H 7.97 71.82 6.9 H 146 C4146 0
17726 H 3.17 74.52 5.06 H 147 C4147 0
17727 C 3.69 74.95 4.39 C.3 147 C4147 0
17728 C 4.66 74.07 3.9 C.3 147 C4147 0
17729 H 3.13 75.23 3.68 H 147 C4147 0
17730 H 5.25 74.54 3.33 H 147 C4147 0
17731 H 4.24 73.37 3.42 H 147 C4147 0
17732 C1 5.46 73.48 5.08 C.3 147 C4147 0
17733 O2 5.67 72.27 5.14 O.3 147 C4147 0
17734 O3 5.94 74.29 6.06 O.3 147 C4147 0
17735 C 4.38 76.19 5.01 C.3 147 C4147 0
17736 H 3.72 76.78 5.34 H 147 C4147 0
17737 H 4.95 75.91 5.72 H 147 C4147 0
17738 H 4.9 76.62 4.34 H 147 C4147 0
17739 C 92.65 75.04 15.87 C.3 148 C4148 0
17740 C 93.62 74.2 15.32 C.3 148 C4148 0
17741 H 92.09 75.37 15.18 H 148 C4148 0
17742 H 94.21 74.71 14.78 H 148 C4148 0
17743 H 93.2 73.53 14.79 H 148 C4148 0
17744 C1 94.42 73.52 16.45 C.3 148 C4148 0
17745 O2 94.63 72.31 16.42 O.3 148 C4148 0
17746 O3 94.9 74.26 17.48 O.3 148 C4148 0
17747 H5 95.42 73.71 18.06 H 148 C4148 0
17748 C 93.34 76.22 16.58 C.3 148 C4148 0
17749 H 92.68 76.8 16.95 H 148 C4148 0
17750 H 93.91 75.9 17.26 H 148 C4148 0
17751 H 93.86 76.71 15.94 H 148 C4148 0
17752 C 89.58 73.68 18.56 C.3 149 C4149 0
17753 C 90.55 74.58 19.02 C.3 149 C4149 0
17754 H 89.02 73.43 19.28 H 149 C4149 0
17755 H 91.15 74.13 19.62 H 149 C4149 0
17756 H 90.13 75.3 19.47 H 149 C4149 0
17757 C1 91.35 75.12 17.82 C.3 149 C4149 0
17758 O2 91.56 76.33 17.72 O.3 149 C4149 0
17759 O3 91.83 74.27 16.88 O.3 149 C4149 0
17760 C 90.28 72.42 18 C.3 149 C4149 0
17761 H 89.62 71.81 17.69 H 149 C4149 0
17762 H 90.84 72.67 17.28 H 149 C4149 0
17763 H 90.79 72.01 18.68 H 149 C4149 0
17764 C 86.52 74.74 15.74 C.3 149 C4149 0
17765 C 87.49 73.79 15.38 C.3 149 C4149 0
17766 H 85.95 74.9 14.99 H 149 C4149 0
17767 H 88.08 74.17 14.74 H 149 C4149 0
17768 H 87.06 73.03 15.01 H 149 C4149 0
17769 C1 88.28 73.38 16.64 C.3 149 C4149 0
17770 O2 88.49 72.19 16.87 O.3 149 C4149 0
17771 O3 88.76 74.33 17.48 O.3 149 C4149 0
17772 C 87.21 76.05 16.16 C.3 149 C4149 0
17773 H 86.55 76.69 16.4 H 149 C4149 0
17774 H 87.77 75.88 16.91 H 149 C4149 0
17775 H 87.73 76.38 15.44 H 149 C4149 0
17776 C 83.45 74 18.66 C.3 149 C4149 0
17777 C 84.42 74.97 18.91 C.3 149 C4149 0
17778 H 82.88 73.91 19.42 H 149 C4149 0
17779 H 85.01 74.67 19.59 H 149 C4149 0
17780 H 84 75.78 19.2 H 149 C4149 0
17781 C1 85.22 75.25 17.62 C.3 149 C4149 0
17782 O2 85.42 76.4 17.26 O.3 149 C4149 0
17783 O3 85.69 74.21 16.89 O.3 149 C4149 0
17784 C 84.14 72.65 18.39 C.3 149 C4149 0
17785 H 83.48 71.98 18.22 H 149 C4149 0
17786 H 84.71 72.73 17.63 H 149 C4149 0
17787 H 84.66 72.4 19.14 H 149 C4149 0
17788 C 80.38 74.41 15.67 C.3 149 C4149 0
17789 C 81.35 73.41 15.54 C.3 149 C4149 0
17790 H 79.82 74.41 14.91 H 149 C4149 0
17791 H 81.94 73.64 14.83 H 149 C4149 0
17792 H 80.93 72.58 15.34 H 149 C4149 0
17793 C1 82.15 73.28 16.85 C.3 149 C4149 0
17794 O2 82.36 72.17 17.34 O.3 149 C4149 0
17795 O3 82.63 74.4 17.46 O.3 149 C4149 0
17796 C 81.07 75.78 15.8 C.3 149 C4149 0
17797 H 80.41 76.46 15.9 H 149 C4149 0
17798 H 81.64 75.78 16.56 H 149 C4149 0
17799 H 81.59 75.95 15.02 H 149 C4149 0
17800 C 77.31 74.33 18.69 C.3 149 C4149 0
17801 C 78.28 75.34 18.72 C.3 149 C4149 0
17802 H 76.75 74.41 19.45 H 149 C4149 0
17803 H 78.88 75.19 19.45 H 149 C4149 0
17804 H 77.86 76.18 18.82 H 149 C4149 0
17805 C1 79.08 75.32 17.4 C.3 149 C4149 0
17806 O2 79.29 76.37 16.79 O.3 149 C4149 0
17807 O3 79.56 74.14 16.91 O.3 149 C4149 0
17808 C 78.01 72.95 18.72 C.3 149 C4149 0
17809 H 77.35 72.27 18.7 H 149 C4149 0
17810 H 78.57 72.87 17.96 H 149 C4149 0
17811 H 78.52 72.87 19.51 H 149 C4149 0
17812 C 74.25 74.08 15.68 C.3 149 C4149 0
17813 C 75.22 73.07 15.77 C.3 149 C4149 0
17814 H 73.68 73.91 14.94 H 149 C4149 0
17815 H 75.81 73.13 15.03 H 149 C4149 0
17816 H 74.79 72.22 15.76 H 149 C4149 0
17817 C1 76.01 73.23 17.08 C.3 149 C4149 0
17818 O2 76.22 72.26 17.8 O.3 149 C4149 0
17819 O3 76.49 74.46 17.43 O.3 149 C4149 0
17820 C 74.94 75.44 15.51 C.3 149 C4149 0
17821 H 74.28 76.12 15.45 H 149 C4149 0
17822 H 75.5 75.61 16.25 H 149 C4149 0
17823 H 75.46 75.43 14.71 H 149 C4149 0
17824 C 71.18 74.66 18.65 C.3 149 C4149 0
17825 C 72.15 75.65 18.45 C.3 149 C4149 0
17826 H 70.61 74.91 19.37 H 149 C4149 0
17827 H 72.74 75.67 19.19 H 149 C4149 0
17828 H 71.73 76.5 18.36 H 149 C4149 0
17829 C1 72.95 75.34 17.17 C.3 149 C4149 0
17830 O2 73.15 76.23 16.34 O.3 149 C4149 0
17831 O3 73.42 74.09 16.95 O.3 149 C4149 0
17832 C 71.87 73.32 18.97 C.3 149 C4149 0
17833 H 71.21 72.65 19.11 H 149 C4149 0
17834 H 72.44 73.08 18.25 H 149 C4149 0
17835 H 72.39 73.42 19.76 H 149 C4149 0
17836 C 68.11 73.75 15.77 C.3 149 C4149 0
17837 C 69.08 72.79 16.07 C.3 149 C4149 0
17838 H 67.55 73.42 15.08 H 149 C4149 0
17839 H 69.67 72.69 15.33 H 149 C4149 0
17840 H 68.66 71.96 16.25 H 149 C4149 0
17841 C1 69.88 73.24 17.31 C.3 149 C4149 0
17842 O2 70.09 72.45 18.23 O.3 149 C4149 0
17843 O3 70.36 74.51 17.39 O.3 149 C4149 0
17844 C 68.8 75.04 15.29 C.3 149 C4149 0
17845 H 68.14 75.7 15.09 H 149 C4149 0
17846 H 69.37 75.37 15.98 H 149 C4149 0
17847 H 69.32 74.86 14.52 H 149 C4149 0
17848 C 65.04 74.97 18.53 C.3 149 C4149 0
17849 C 66.01 75.9 18.12 C.3 149 C4149 0
17850 H 64.48 75.38 19.18 H 149 C4149 0
17851 H 66.6 76.08 18.84 H 149 C4149 0
17852 H 65.59 76.7 17.85 H 149 C4149 0
17853 C1 66.81 75.32 16.94 C.3 149 C4149 0
17854 O2 67.02 76 15.94 O.3 149 C4149 0
17855 O3 67.29 74.04 17 O.3 149 C4149 0
17856 C 65.74 73.74 19.14 C.3 149 C4149 0
17857 H 65.08 73.12 19.42 H 149 C4149 0
17858 H 66.3 73.34 18.49 H 149 C4149 0
17859 H 66.25 74.01 19.89 H 149 C4149 0
17860 C 61.98 73.46 15.92 C.3 149 C4149 0
17861 C 62.95 72.58 16.43 C.3 149 C4149 0
17862 H 61.41 72.98 15.32 H 149 C4149 0
17863 H 63.54 72.32 15.73 H 149 C4149 0
17864 H 62.52 71.81 16.79 H 149 C4149 0
17865 C1 63.74 73.29 17.54 C.3 149 C4149 0
17866 O2 63.95 72.72 18.61 O.3 149 C4149 0
17867 O3 64.22 74.55 17.34 O.3 149 C4149 0
17868 C 62.67 74.61 15.17 C.3 149 C4149 0
17869 H 62.01 75.2 14.83 H 149 C4149 0
17870 H 63.23 75.08 15.77 H 149 C4149 0
17871 H 63.19 74.26 14.46 H 149 C4149 0
17872 C 58.91 75.25 18.34 C.3 149 C4149 0
17873 C 59.88 76.06 17.74 C.3 149 C4149 0
17874 H 58.34 75.79 18.89 H 149 C4149 0
17875 H 60.47 76.4 18.41 H 149 C4149 0
17876 H 59.46 76.79 17.3 H 149 C4149 0
17877 C1 60.68 75.24 16.72 C.3 149 C4149 0
17878 O2 60.88 75.69 15.59 O.3 149 C4149 0
17879 O3 61.15 74.01 17.06 O.3 149 C4149 0
17880 C 59.6 74.19 19.21 C.3 149 C4149 0
17881 H 58.94 73.64 19.62 H 149 C4149 0
17882 H 60.17 73.65 18.67 H 149 C4149 0
17883 H 60.12 74.61 19.89 H 149 C4149 0
17884 C 55.84 73.2 16.13 C.3 149 C4149 0
17885 C 56.81 72.46 16.82 C.3 149 C4149 0
17886 H 55.27 72.61 15.65 H 149 C4149 0
17887 H 57.4 72.05 16.2 H 149 C4149 0
17888 H 56.39 71.79 17.34 H 149 C4149 0
17889 C1 57.61 73.39 17.75 C.3 149 C4149 0
17890 O2 57.81 73.07 18.92 O.3 149 C4149 0
17891 O3 58.09 74.58 17.27 O.3 149 C4149 0
17892 C 56.53 74.16 15.15 C.3 149 C4149 0
17893 H 55.87 74.67 14.69 H 149 C4149 0
17894 H 57.1 74.75 15.63 H 149 C4149 0
17895 H 57.05 73.67 14.53 H 149 C4149 0
17896 C 52.77 75.49 18.1 C.3 149 C4149 0
17897 C 53.74 76.15 17.34 C.3 149 C4149 0
17898 H 52.21 76.13 18.52 H 149 C4149 0
17899 H 54.33 76.62 17.91 H 149 C4149 0
17900 H 53.32 76.76 16.75 H 149 C4149 0
17901 C1 54.54 75.11 16.52 C.3 149 C4149 0
17902 O2 54.75 75.3 15.32 O.3 149 C4149 0
17903 O3 55.02 73.99 17.12 O.3 149 C4149 0
17904 C 53.46 74.64 19.19 C.3 149 C4149 0
17905 H 52.81 74.19 19.7 H 149 C4149 0
17906 H 54.03 74 18.77 H 149 C4149 0
17907 H 53.98 75.2 19.75 H 149 C4149 0
17908 C 49.71 73 16.4 C.3 149 C4149 0
17909 C 50.68 72.42 17.23 C.3 149 C4149 0
17910 H 49.14 72.31 16.06 H 149 C4149 0
17911 H 51.27 71.89 16.71 H 149 C4149 0
17912 H 50.25 71.88 17.89 H 149 C4149 0
17913 C1 51.47 73.54 17.93 C.3 149 C4149 0
17914 O2 51.68 73.49 19.14 O.3 149 C4149 0
17915 O3 51.95 74.59 17.21 O.3 149 C4149 0
17916 C 50.4 73.72 15.23 C.3 149 C4149 0
17917 H 49.74 74.11 14.66 H 149 C4149 0
17918 H 50.96 74.4 15.57 H 149 C4149 0
17919 H 50.91 73.1 14.73 H 149 C4149 0
17920 C 46.64 75.66 17.82 C.3 149 C4149 0
17921 C 47.61 76.14 16.93 C.3 149 C4149 0
17922 H 46.07 76.38 18.08 H 149 C4149 0
17923 H 48.2 76.72 17.38 H 149 C4149 0
17924 H 47.19 76.6 16.22 H 149 C4149 0
17925 C1 48.41 74.95 16.36 C.3 149 C4149 0
17926 O2 48.61 74.87 15.15 O.3 149 C4149 0
17927 O3 48.88 73.98 17.19 O.3 149 C4149 0
17928 C 47.33 75.07 19.06 C.3 149 C4149 0
17929 H 46.67 74.75 19.66 H 149 C4149 0
17930 H 47.9 74.35 18.8 H 149 C4149 0
17931 H 47.85 75.74 19.48 H 149 C4149 0
17932 C 43.57 72.86 16.7 C.3 149 C4149 0
17933 C 44.54 72.48 17.64 C.3 149 C4149 0
17934 H 43.01 72.11 16.52 H 149 C4149 0
17935 H 45.13 71.85 17.25 H 149 C4149 0
17936 H 44.12 72.1 18.4 H 149 C4149 0
17937 C1 45.34 73.73 18.08 C.3 149 C4149 0
17938 O2 45.54 73.94 19.27 O.3 149 C4149 0
17939 O3 45.82 74.59 17.14 O.3 149 C4149 0
17940 C 44.26 73.31 15.4 C.3 149 C4149 0
17941 H 43.6 73.56 14.77 H 149 C4149 0
17942 H 44.83 74.05 15.58 H 149 C4149 0
17943 H 44.78 72.59 15.05 H 149 C4149 0
17944 C 40.5 75.77 17.5 C.3 149 C4149 0
17945 C 41.47 76.03 16.53 C.3 149 C4149 0
17946 H 39.94 76.52 17.6 H 149 C4149 0
17947 H 42.06 76.71 16.84 H 149 C4149 0
17948 H 41.05 76.33 15.73 H 149 C4149 0
17949 C1 42.27 74.75 16.23 C.3 149 C4149 0
17950 O2 42.48 74.41 15.07 O.3 149 C4149 0
17951 O3 42.75 73.99 17.26 O.3 149 C4149 0
17952 C 41.19 75.46 18.84 C.3 149 C4149 0
17953 H 40.54 75.28 19.5 H 149 C4149 0
17954 H 41.76 74.71 18.74 H 149 C4149 0
17955 H 41.71 76.21 19.11 H 149 C4149 0
17956 C 37.44 72.79 17.03 C.3 149 C4149 0
17957 C 38.41 72.63 18.03 C.3 149 C4149 0
17958 H 36.87 72.02 17.02 H 149 C4149 0
17959 H 39 71.92 17.79 H 149 C4149 0
17960 H 37.98 72.42 18.85 H 149 C4149 0
17961 C1 39.2 73.94 18.18 C.3 149 C4149 0
17962 O2 39.41 74.41 19.3 O.3 149 C4149 0
17963 O3 39.68 74.58 17.08 O.3 149 C4149 0
17964 C 38.13 72.94 15.66 C.3 149 C4149 0
17965 H 37.47 73.05 14.99 H 149 C4149 0
17966 H 38.69 73.7 15.68 H 149 C4149 0
17967 H 38.64 72.16 15.48 H 149 C4149 0
17968 C 34.37 75.8 17.17 C.3 149 C4149 0
17969 C 35.34 75.85 16.16 C.3 149 C4149 0
17970 H 33.8 76.56 17.1 H 149 C4149 0
17971 H 35.93 76.57 16.32 H 149 C4149 0
17972 H 34.91 75.96 15.32 H 149 C4149 0
17973 C1 36.14 74.53 16.15 C.3 149 C4149 0
17974 O2 36.34 73.94 15.09 O.3 149 C4149 0
17975 O3 36.61 74.02 17.32 O.3 149 C4149 0
17976 C 35.06 75.8 18.54 C.3 149 C4149 0
17977 H 34.4 75.77 19.23 H 149 C4149 0
17978 H 35.62 75.04 18.61 H 149 C4149 0
17979 H 35.58 76.59 18.64 H 149 C4149 0
17980 C 31.3 72.79 17.37 C.3 149 C4149 0
17981 C 32.27 72.86 18.37 C.3 149 C4149 0
17982 H 30.73 72.04 17.52 H 149 C4149 0
17983 H 32.86 72.11 18.29 H 149 C4149 0
17984 H 31.85 72.83 19.22 H 149 C4149 0
17985 C1 33.07 74.17 18.23 C.3 149 C4149 0
17986 O2 33.27 74.87 19.22 O.3 149 C4149 0
17987 O3 33.54 74.54 17.02 O.3 149 C4149 0
17988 C 31.99 72.64 16 C.3 149 C4149 0
17989 H 31.33 72.59 15.31 H 149 C4149 0
17990 H 32.56 73.39 15.84 H 149 C4149 0
17991 H 32.51 71.84 15.99 H 149 C4149 0
17992 C 28.23 75.76 16.84 C.3 149 C4149 0
17993 C 29.2 75.59 15.84 C.3 149 C4149 0
17994 H 27.67 76.49 16.6 H 149 C4149 0
17995 H 29.79 76.33 15.84 H 149 C4149 0
17996 H 28.78 75.51 15 H 149 C4149 0
17997 C1 30 74.3 16.13 C.3 149 C4149 0
17998 O2 30.21 73.49 15.22 O.3 149 C4149 0
17999 O3 30.48 74.06 17.38 O.3 149 C4149 0
18000 C 28.92 76.06 18.18 C.3 149 C4149 0
18001 H 28.27 76.18 18.85 H 149 C4149 0
18002 H 29.49 75.34 18.41 H 149 C4149 0
18003 H 29.44 76.86 18.1 H 149 C4149 0
18004 C 25.17 72.87 17.69 C.3 149 C4149 0
18005 C 26.14 73.15 18.66 C.3 149 C4149 0
18006 H 24.6 72.17 18.01 H 149 C4149 0
18007 H 26.73 72.41 18.74 H 149 C4149 0
18008 H 25.71 73.32 19.49 H 149 C4149 0
18009 C1 26.93 74.4 18.23 C.3 149 C4149 0
18010 O2 27.14 75.3 19.04 O.3 149 C4149 0
18011 O3 27.41 74.5 16.97 O.3 149 C4149 0
18012 C 25.86 72.42 16.39 C.3 149 C4149 0
18013 H 25.2 72.23 15.73 H 149 C4149 0
18014 H 26.42 73.11 16.08 H 149 C4149 0
18015 H 26.37 71.64 16.56 H 149 C4149 0
18016 C 22.1 75.65 16.52 C.3 149 C4149 0
18017 C 23.07 75.26 15.59 C.3 149 C4149 0
18018 H 21.53 76.31 16.13 H 149 C4149 0
18019 H 23.66 75.98 15.42 H 149 C4149 0
18020 H 22.64 75 14.78 H 149 C4149 0
18021 C1 23.87 74.07 16.15 C.3 149 C4149 0
18022 O2 24.07 73.08 15.45 O.3 149 C4149 0
18023 O3 24.34 74.1 17.42 O.3 149 C4149 0
18024 C 22.79 76.24 17.77 C.3 149 C4149 0
18025 H 22.13 76.51 18.4 H 149 C4149 0
18026 H 23.35 75.58 18.15 H 149 C4149 0
18027 H 23.31 77 17.51 H 149 C4149 0
18028 C 19.03 73.01 17.99 C.3 149 C4149 0
18029 C 20 73.51 18.87 C.3 149 C4149 0
18030 H 18.46 72.41 18.45 H 149 C4149 0
18031 H 20.59 72.8 19.12 H 149 C4149 0
18032 H 19.58 73.85 19.65 H 149 C4149 0
18033 C1 20.8 74.63 18.18 C.3 149 C4149 0
18034 O2 21 75.69 18.78 O.3 149 C4149 0
18035 O3 21.27 74.45 16.92 O.3 149 C4149 0
18036 C 19.72 72.29 16.82 C.3 149 C4149 0
18037 H 19.06 71.96 16.22 H 149 C4149 0
18038 H 20.29 72.9 16.36 H 149 C4149 0
18039 H 20.24 71.57 17.16 H 149 C4149 0
18040 C 15.96 75.47 16.24 C.3 149 C4149 0
18041 C 16.93 74.89 15.42 C.3 149 C4149 0
18042 H 15.4 76.03 15.72 H 149 C4149 0
18043 H 17.52 75.56 15.1 H 149 C4149 0
18044 H 16.51 74.46 14.68 H 149 C4149 0
18045 C1 17.73 73.85 16.23 C.3 149 C4149 0
18046 O2 17.94 72.73 15.76 O.3 149 C4149 0
18047 O3 18.21 74.16 17.46 O.3 149 C4149 0
18048 C 16.65 76.32 17.32 C.3 149 C4149 0
18049 H 16 76.72 17.88 H 149 C4149 0
18050 H 17.22 75.77 17.85 H 149 C4149 0
18051 H 17.17 77 16.91 H 149 C4149 0
18052 C 12.89 73.22 18.25 C.3 149 C4149 0
18053 C 13.87 73.9 19.01 C.3 149 C4149 0
18054 H 12.33 72.73 18.83 H 149 C4149 0
18055 H 14.45 73.27 19.4 H 149 C4149 0
18056 H 13.44 74.4 19.69 H 149 C4149 0
18057 C1 14.66 74.84 18.09 C.3 149 C4149 0
18058 O2 14.87 76.01 18.43 O.3 149 C4149 0
18059 O3 15.14 74.39 16.9 O.3 149 C4149 0
18060 C 13.59 72.26 17.27 C.3 149 C4149 0
18061 H 12.93 71.8 16.76 H 149 C4149 0
18062 H 14.15 72.75 16.69 H 149 C4149 0
18063 H 14.1 71.63 17.76 H 149 C4149 0
18064 C 9.83 75.24 16 C.3 149 C4149 0
18065 C 10.8 74.48 15.33 C.3 149 C4149 0
18066 H 9.26 75.66 15.37 H 149 C4149 0
18067 H 11.39 75.07 14.87 H 149 C4149 0
18068 H 10.37 73.9 14.71 H 149 C4149 0
18069 C1 11.59 73.65 16.35 C.3 149 C4149 0
18070 O2 11.8 72.45 16.13 O.3 149 C4149 0
18071 O3 12.07 74.23 17.48 O.3 149 C4149 0
18072 C 10.52 76.3 16.87 C.3 149 C4149 0
18073 H 9.86 76.81 17.33 H 149 C4149 0
18074 H 11.08 75.88 17.51 H 149 C4149 0
18075 H 11.04 76.88 16.32 H 149 C4149 0
18076 C 6.76 73.49 18.46 C.3 149 C4149 0
18077 C 7.73 74.31 19.05 C.3 149 C4149 0
18078 H 6.19 73.13 19.14 H 149 C4149 0
18079 H 8.32 73.78 19.57 H 149 C4149 0
18080 H 7.31 74.95 19.6 H 149 C4149 0
18081 C1 8.53 75.03 17.94 C.3 149 C4149 0
18082 O2 8.73 76.24 18.02 O.3 149 C4149 0
18083 O3 9 74.33 16.88 O.3 149 C4149 0
18084 C 7.45 72.33 17.71 C.3 149 C4149 0
18085 H 6.79 71.77 17.32 H 149 C4149 0
18086 H 8.02 72.68 17.04 H 149 C4149 0
18087 H 7.97 71.82 18.33 H 149 C4149 0
18088 H 3.17 74.52 16.49 H 150 C4150 0
18089 C 3.69 74.95 15.82 C.3 150 C4150 0
18090 C 4.66 74.07 15.33 C.3 150 C4150 0
18091 H 3.13 75.23 15.11 H 150 C4150 0
18092 H 5.25 74.54 14.76 H 150 C4150 0
18093 H 4.24 73.37 14.85 H 150 C4150 0
18094 C1 5.46 73.48 16.51 C.3 150 C4150 0
18095 O2 5.67 72.27 16.57 O.3 150 C4150 0
18096 O3 5.94 74.29 17.49 O.3 150 C4150 0
18097 C 4.38 76.19 16.44 C.3 150 C4150 0
18098 H 3.72 76.78 16.77 H 150 C4150 0
18099 H 4.95 75.91 17.15 H 150 C4150 0
18100 H 4.9 76.62 15.77 H 150 C4150 0
18101 C 92.65 75.04 27.3 C.3 151 C4151 0
18102 C 93.62 74.2 26.75 C.3 151 C4151 0
18103 H 92.09 75.37 26.61 H 151 C4151 0
18104 H 94.21 74.71 26.21 H 151 C4151 0
18105 H 93.2 73.53 26.22 H 151 C4151 0
18106 C1 94.42 73.52 27.88 C.3 151 C4151 0
18107 O2 94.63 72.31 27.85 O.3 151 C4151 0
18108 O3 94.9 74.26 28.91 O.3 151 C4151 0
18109 H5 95.42 73.71 29.49 H 151 C4151 0
18110 C 93.34 76.22 28.01 C.3 151 C4151 0
18111 H 92.68 76.8 28.38 H 151 C4151 0
18112 H 93.91 75.9 28.69 H 151 C4151 0
18113 H 93.86 76.71 27.37 H 151 C4151 0
18114 C 89.58 73.68 29.99 C.3 152 C4152 0
18115 C 90.55 74.58 30.45 C.3 152 C4152 0
18116 H 89.02 73.43 30.71 H 152 C4152 0
18117 H 91.15 74.13 31.05 H 152 C4152 0
18118 H 90.13 75.3 30.9 H 152 C4152 0
18119 C1 91.35 75.12 29.25 C.3 152 C4152 0
18120 O2 91.56 76.33 29.15 O.3 152 C4152 0
18121 O3 91.83 74.27 28.31 O.3 152 C4152 0
18122 C 90.28 72.42 29.43 C.3 152 C4152 0
18123 H 89.62 71.81 29.12 H 152 C4152 0
18124 H 90.84 72.67 28.71 H 152 C4152 0
18125 H 90.79 72.01 30.11 H 152 C4152 0
18126 C 86.52 74.74 27.17 C.3 152 C4152 0
18127 C 87.49 73.79 26.81 C.3 152 C4152 0
18128 H 85.95 74.9 26.42 H 152 C4152 0
18129 H 88.08 74.17 26.17 H 152 C4152 0
18130 H 87.06 73.03 26.44 H 152 C4152 0
18131 C1 88.28 73.38 28.07 C.3 152 C4152 0
18132 O2 88.49 72.19 28.3 O.3 152 C4152 0
18133 O3 88.76 74.33 28.91 O.3 152 C4152 0
18134 C 87.21 76.05 27.59 C.3 152 C4152 0
18135 H 86.55 76.69 27.83 H 152 C4152 0
18136 H 87.77 75.88 28.34 H 152 C4152 0
18137 H 87.73 76.38 26.87 H 152 C4152 0
18138 C 83.45 74 30.09 C.3 152 C4152 0
18139 C 84.42 74.97 30.34 C.3 152 C4152 0
18140 H 82.88 73.91 30.85 H 152 C4152 0
18141 H 85.01 74.67 31.02 H 152 C4152 0
18142 H 84 75.78 30.63 H 152 C4152 0
18143 C1 85.22 75.25 29.05 C.3 152 C4152 0
18144 O2 85.42 76.4 28.69 O.3 152 C4152 0
18145 O3 85.69 74.21 28.32 O.3 152 C4152 0
18146 C 84.14 72.65 29.82 C.3 152 C4152 0
18147 H 83.48 71.98 29.65 H 152 C4152 0
18148 H 84.71 72.73 29.06 H 152 C4152 0
18149 H 84.66 72.4 30.57 H 152 C4152 0
18150 C 80.38 74.41 27.1 C.3 152 C4152 0
18151 C 81.35 73.41 26.97 C.3 152 C4152 0
18152 H 79.82 74.41 26.34 H 152 C4152 0
18153 H 81.94 73.64 26.26 H 152 C4152 0
18154 H 80.93 72.58 26.77 H 152 C4152 0
18155 C1 82.15 73.28 28.28 C.3 152 C4152 0
18156 O2 82.36 72.17 28.77 O.3 152 C4152 0
18157 O3 82.63 74.4 28.89 O.3 152 C4152 0
18158 C 81.07 75.78 27.23 C.3 152 C4152 0
18159 H 80.41 76.46 27.33 H 152 C4152 0
18160 H 81.64 75.78 27.99 H 152 C4152 0
18161 H 81.59 75.95 26.45 H 152 C4152 0
18162 C 77.31 74.33 30.12 C.3 152 C4152 0
18163 C 78.28 75.34 30.15 C.3 152 C4152 0
18164 H 76.75 74.41 30.88 H 152 C4152 0
18165 H 78.88 75.19 30.88 H 152 C4152 0
18166 H 77.86 76.18 30.25 H 152 C4152 0
18167 C1 79.08 75.32 28.83 C.3 152 C4152 0
18168 O2 79.29 76.37 28.22 O.3 152 C4152 0
18169 O3 79.56 74.14 28.34 O.3 152 C4152 0
18170 C 78.01 72.95 30.15 C.3 152 C4152 0
18171 H 77.35 72.27 30.13 H 152 C4152 0
18172 H 78.57 72.87 29.39 H 152 C4152 0
18173 H 78.52 72.87 30.94 H 152 C4152 0
18174 C 74.25 74.08 27.11 C.3 152 C4152 0
18175 C 75.22 73.07 27.2 C.3 152 C4152 0
18176 H 73.68 73.91 26.37 H 152 C4152 0
18177 H 75.81 73.13 26.46 H 152 C4152 0
18178 H 74.79 72.22 27.19 H 152 C4152 0
18179 C1 76.01 73.23 28.51 C.3 152 C4152 0
18180 O2 76.22 72.26 29.23 O.3 152 C4152 0
18181 O3 76.49 74.46 28.86 O.3 152 C4152 0
18182 C 74.94 75.44 26.94 C.3 152 C4152 0
18183 H 74.28 76.12 26.88 H 152 C4152 0
18184 H 75.5 75.61 27.68 H 152 C4152 0
18185 H 75.46 75.43 26.14 H 152 C4152 0
18186 C 71.18 74.66 30.08 C.3 152 C4152 0
18187 C 72.15 75.65 29.88 C.3 152 C4152 0
18188 H 70.61 74.91 30.8 H 152 C4152 0
18189 H 72.74 75.67 30.62 H 152 C4152 0
18190 H 71.73 76.5 29.79 H 152 C4152 0
18191 C1 72.95 75.34 28.6 C.3 152 C4152 0
18192 O2 73.15 76.23 27.77 O.3 152 C4152 0
18193 O3 73.42 74.09 28.38 O.3 152 C4152 0
18194 C 71.87 73.32 30.4 C.3 152 C4152 0
18195 H 71.21 72.65 30.54 H 152 C4152 0
18196 H 72.44 73.08 29.68 H 152 C4152 0
18197 H 72.39 73.42 31.19 H 152 C4152 0
18198 C 68.11 73.75 27.2 C.3 152 C4152 0
18199 C 69.08 72.79 27.5 C.3 152 C4152 0
18200 H 67.55 73.42 26.51 H 152 C4152 0
18201 H 69.67 72.69 26.76 H 152 C4152 0
18202 H 68.66 71.96 27.68 H 152 C4152 0
18203 C1 69.88 73.24 28.74 C.3 152 C4152 0
18204 O2 70.09 72.45 29.66 O.3 152 C4152 0
18205 O3 70.36 74.51 28.82 O.3 152 C4152 0
18206 C 68.8 75.04 26.72 C.3 152 C4152 0
18207 H 68.14 75.7 26.52 H 152 C4152 0
18208 H 69.37 75.37 27.41 H 152 C4152 0
18209 H 69.32 74.86 25.95 H 152 C4152 0
18210 C 65.04 74.97 29.96 C.3 152 C4152 0
18211 C 66.01 75.9 29.55 C.3 152 C4152 0
18212 H 64.48 75.38 30.61 H 152 C4152 0
18213 H 66.6 76.08 30.27 H 152 C4152 0
18214 H 65.59 76.7 29.28 H 152 C4152 0
18215 C1 66.81 75.32 28.37 C.3 152 C4152 0
18216 O2 67.02 76 27.37 O.3 152 C4152 0
18217 O3 67.29 74.04 28.43 O.3 152 C4152 0
18218 C 65.74 73.74 30.57 C.3 152 C4152 0
18219 H 65.08 73.12 30.85 H 152 C4152 0
18220 H 66.3 73.34 29.92 H 152 C4152 0
18221 H 66.25 74.01 31.32 H 152 C4152 0
18222 C 61.98 73.46 27.35 C.3 152 C4152 0
18223 C 62.95 72.58 27.86 C.3 152 C4152 0
18224 H 61.41 72.98 26.75 H 152 C4152 0
18225 H 63.54 72.32 27.16 H 152 C4152 0
18226 H 62.52 71.81 28.22 H 152 C4152 0
18227 C1 63.74 73.29 28.97 C.3 152 C4152 0
18228 O2 63.95 72.72 30.04 O.3 152 C4152 0
18229 O3 64.22 74.55 28.77 O.3 152 C4152 0
18230 C 62.67 74.61 26.6 C.3 152 C4152 0
18231 H 62.01 75.2 26.26 H 152 C4152 0
18232 H 63.23 75.08 27.2 H 152 C4152 0
18233 H 63.19 74.26 25.89 H 152 C4152 0
18234 C 58.91 75.25 29.77 C.3 152 C4152 0
18235 C 59.88 76.06 29.17 C.3 152 C4152 0
18236 H 58.34 75.79 30.32 H 152 C4152 0
18237 H 60.47 76.4 29.84 H 152 C4152 0
18238 H 59.46 76.79 28.73 H 152 C4152 0
18239 C1 60.68 75.24 28.15 C.3 152 C4152 0
18240 O2 60.88 75.69 27.02 O.3 152 C4152 0
18241 O3 61.15 74.01 28.49 O.3 152 C4152 0
18242 C 59.6 74.19 30.64 C.3 152 C4152 0
18243 H 58.94 73.64 31.05 H 152 C4152 0
18244 H 60.17 73.65 30.1 H 152 C4152 0
18245 H 60.12 74.61 31.32 H 152 C4152 0
18246 C 55.84 73.2 27.56 C.3 152 C4152 0
18247 C 56.81 72.46 28.25 C.3 152 C4152 0
18248 H 55.27 72.61 27.08 H 152 C4152 0
18249 H 57.4 72.05 27.63 H 152 C4152 0
18250 H 56.39 71.79 28.77 H 152 C4152 0
18251 C1 57.61 73.39 29.18 C.3 152 C4152 0
18252 O2 57.81 73.07 30.35 O.3 152 C4152 0
18253 O3 58.09 74.58 28.7 O.3 152 C4152 0
18254 C 56.53 74.16 26.58 C.3 152 C4152 0
18255 H 55.87 74.67 26.12 H 152 C4152 0
18256 H 57.1 74.75 27.06 H 152 C4152 0
18257 H 57.05 73.67 25.96 H 152 C4152 0
18258 C 52.77 75.49 29.53 C.3 152 C4152 0
18259 C 53.74 76.15 28.77 C.3 152 C4152 0
18260 H 52.21 76.13 29.95 H 152 C4152 0
18261 H 54.33 76.62 29.34 H 152 C4152 0
18262 H 53.32 76.76 28.18 H 152 C4152 0
18263 C1 54.54 75.11 27.95 C.3 152 C4152 0
18264 O2 54.75 75.3 26.75 O.3 152 C4152 0
18265 O3 55.02 73.99 28.55 O.3 152 C4152 0
18266 C 53.46 74.64 30.62 C.3 152 C4152 0
18267 H 52.81 74.19 31.13 H 152 C4152 0
18268 H 54.03 74 30.2 H 152 C4152 0
18269 H 53.98 75.2 31.18 H 152 C4152 0
18270 C 49.71 73 27.83 C.3 152 C4152 0
18271 C 50.68 72.42 28.66 C.3 152 C4152 0
18272 H 49.14 72.31 27.49 H 152 C4152 0
18273 H 51.27 71.89 28.14 H 152 C4152 0
18274 H 50.25 71.88 29.32 H 152 C4152 0
18275 C1 51.47 73.54 29.36 C.3 152 C4152 0
18276 O2 51.68 73.49 30.57 O.3 152 C4152 0
18277 O3 51.95 74.59 28.64 O.3 152 C4152 0
18278 C 50.4 73.72 26.66 C.3 152 C4152 0
18279 H 49.74 74.11 26.09 H 152 C4152 0
18280 H 50.96 74.4 27 H 152 C4152 0
18281 H 50.91 73.1 26.16 H 152 C4152 0
18282 C 46.64 75.66 29.25 C.3 152 C4152 0
18283 C 47.61 76.14 28.36 C.3 152 C4152 0
18284 H 46.07 76.38 29.51 H 152 C4152 0
18285 H 48.2 76.72 28.81 H 152 C4152 0
18286 H 47.19 76.6 27.65 H 152 C4152 0
18287 C1 48.41 74.95 27.79 C.3 152 C4152 0
18288 O2 48.61 74.87 26.58 O.3 152 C4152 0
18289 O3 48.88 73.98 28.62 O.3 152 C4152 0
18290 C 47.33 75.07 30.49 C.3 152 C4152 0
18291 H 46.67 74.75 31.09 H 152 C4152 0
18292 H 47.9 74.35 30.23 H 152 C4152 0
18293 H 47.85 75.74 30.91 H 152 C4152 0
18294 C 43.57 72.86 28.13 C.3 152 C4152 0
18295 C 44.54 72.48 29.07 C.3 152 C4152 0
18296 H 43.01 72.11 27.95 H 152 C4152 0
18297 H 45.13 71.85 28.68 H 152 C4152 0
18298 H 44.12 72.1 29.83 H 152 C4152 0
18299 C1 45.34 73.73 29.51 C.3 152 C4152 0
18300 O2 45.54 73.94 30.7 O.3 152 C4152 0
18301 O3 45.82 74.59 28.57 O.3 152 C4152 0
18302 C 44.26 73.31 26.83 C.3 152 C4152 0
18303 H 43.6 73.56 26.2 H 152 C4152 0
18304 H 44.83 74.05 27.01 H 152 C4152 0
18305 H 44.78 72.59 26.48 H 152 C4152 0
18306 C 40.5 75.77 28.93 C.3 152 C4152 0
18307 C 41.47 76.03 27.96 C.3 152 C4152 0
18308 H 39.94 76.52 29.03 H 152 C4152 0
18309 H 42.06 76.71 28.27 H 152 C4152 0
18310 H 41.05 76.33 27.16 H 152 C4152 0
18311 C1 42.27 74.75 27.66 C.3 152 C4152 0
18312 O2 42.48 74.41 26.5 O.3 152 C4152 0
18313 O3 42.75 73.99 28.69 O.3 152 C4152 0
18314 C 41.19 75.46 30.27 C.3 152 C4152 0
18315 H 40.54 75.28 30.93 H 152 C4152 0
18316 H 41.76 74.71 30.17 H 152 C4152 0
18317 H 41.71 76.21 30.54 H 152 C4152 0
18318 C 37.44 72.79 28.46 C.3 152 C4152 0
18319 C 38.41 72.63 29.46 C.3 152 C4152 0
18320 H 36.87 72.02 28.45 H 152 C4152 0
18321 H 39 71.92 29.22 H 152 C4152 0
18322 H 37.98 72.42 30.28 H 152 C4152 0
18323 C1 39.2 73.94 29.61 C.3 152 C4152 0
18324 O2 39.41 74.41 30.73 O.3 152 C4152 0
18325 O3 39.68 74.58 28.51 O.3 152 C4152 0
18326 C 38.13 72.94 27.09 C.3 152 C4152 0
18327 H 37.47 73.05 26.42 H 152 C4152 0
18328 H 38.69 73.7 27.11 H 152 C4152 0
18329 H 38.64 72.16 26.91 H 152 C4152 0
18330 C 34.37 75.8 28.6 C.3 152 C4152 0
18331 C 35.34 75.85 27.59 C.3 152 C4152 0
18332 H 33.8 76.56 28.53 H 152 C4152 0
18333 H 35.93 76.57 27.75 H 152 C4152 0
18334 H 34.91 75.96 26.75 H 152 C4152 0
18335 C1 36.14 74.53 27.58 C.3 152 C4152 0
18336 O2 36.34 73.94 26.52 O.3 152 C4152 0
18337 O3 36.61 74.02 28.75 O.3 152 C4152 0
18338 C 35.06 75.8 29.97 C.3 152 C4152 0
18339 H 34.4 75.77 30.66 H 152 C4152 0
18340 H 35.62 75.04 30.04 H 152 C4152 0
18341 H 35.58 76.59 30.07 H 152 C4152 0
18342 C 31.3 72.79 28.8 C.3 152 C4152 0
18343 C 32.27 72.86 29.8 C.3 152 C4152 0
18344 H 30.73 72.04 28.95 H 152 C4152 0
18345 H 32.86 72.11 29.72 H 152 C4152 0
18346 H 31.85 72.83 30.65 H 152 C4152 0
18347 C1 33.07 74.17 29.66 C.3 152 C4152 0
18348 O2 33.27 74.87 30.65 O.3 152 C4152 0
18349 O3 33.54 74.54 28.45 O.3 152 C4152 0
18350 C 31.99 72.64 27.43 C.3 152 C4152 0
18351 H 31.33 72.59 26.74 H 152 C4152 0
18352 H 32.56 73.39 27.27 H 152 C4152 0
18353 H 32.51 71.84 27.42 H 152 C4152 0
18354 C 28.23 75.76 28.27 C.3 152 C4152 0
18355 C 29.2 75.59 27.27 C.3 152 C4152 0
18356 H 27.67 76.49 28.03 H 152 C4152 0
18357 H 29.79 76.33 27.27 H 152 C4152 0
18358 H 28.78 75.51 26.43 H 152 C4152 0
18359 C1 30 74.3 27.56 C.3 152 C4152 0
18360 O2 30.21 73.49 26.65 O.3 152 C4152 0
18361 O3 30.48 74.06 28.81 O.3 152 C4152 0
18362 C 28.92 76.06 29.61 C.3 152 C4152 0
18363 H 28.27 76.18 30.28 H 152 C4152 0
18364 H 29.49 75.34 29.84 H 152 C4152 0
18365 H 29.44 76.86 29.53 H 152 C4152 0
18366 C 25.17 72.87 29.12 C.3 152 C4152 0
18367 C 26.14 73.15 30.09 C.3 152 C4152 0
18368 H 24.6 72.17 29.44 H 152 C4152 0
18369 H 26.73 72.41 30.17 H 152 C4152 0
18370 H 25.71 73.32 30.92 H 152 C4152 0
18371 C1 26.93 74.4 29.66 C.3 152 C4152 0
18372 O2 27.14 75.3 30.47 O.3 152 C4152 0
18373 O3 27.41 74.5 28.4 O.3 152 C4152 0
18374 C 25.86 72.42 27.82 C.3 152 C4152 0
18375 H 25.2 72.23 27.16 H 152 C4152 0
18376 H 26.42 73.11 27.51 H 152 C4152 0
18377 H 26.37 71.64 27.99 H 152 C4152 0
18378 C 22.1 75.65 27.95 C.3 152 C4152 0
18379 C 23.07 75.26 27.02 C.3 152 C4152 0
18380 H 21.53 76.31 27.56 H 152 C4152 0
18381 H 23.66 75.98 26.85 H 152 C4152 0
18382 H 22.64 75 26.21 H 152 C4152 0
18383 C1 23.87 74.07 27.58 C.3 152 C4152 0
18384 O2 24.07 73.08 26.88 O.3 152 C4152 0
18385 O3 24.34 74.1 28.85 O.3 152 C4152 0
18386 C 22.79 76.24 29.2 C.3 152 C4152 0
18387 H 22.13 76.51 29.83 H 152 C4152 0
18388 H 23.35 75.58 29.58 H 152 C4152 0
18389 H 23.31 77 28.94 H 152 C4152 0
18390 C 19.03 73.01 29.42 C.3 152 C4152 0
18391 C 20 73.51 30.3 C.3 152 C4152 0
18392 H 18.46 72.41 29.88 H 152 C4152 0
18393 H 20.59 72.8 30.55 H 152 C4152 0
18394 H 19.58 73.85 31.08 H 152 C4152 0
18395 C1 20.8 74.63 29.61 C.3 152 C4152 0
18396 O2 21 75.69 30.21 O.3 152 C4152 0
18397 O3 21.27 74.45 28.35 O.3 152 C4152 0
18398 C 19.72 72.29 28.25 C.3 152 C4152 0
18399 H 19.06 71.96 27.65 H 152 C4152 0
18400 H 20.29 72.9 27.79 H 152 C4152 0
18401 H 20.24 71.57 28.59 H 152 C4152 0
18402 C 15.96 75.47 27.67 C.3 152 C4152 0
18403 C 16.93 74.89 26.85 C.3 152 C4152 0
18404 H 15.4 76.03 27.15 H 152 C4152 0
18405 H 17.52 75.56 26.53 H 152 C4152 0
18406 H 16.51 74.46 26.11 H 152 C4152 0
18407 C1 17.73 73.85 27.66 C.3 152 C4152 0
18408 O2 17.94 72.73 27.19 O.3 152 C4152 0
18409 O3 18.21 74.16 28.89 O.3 152 C4152 0
18410 C 16.65 76.32 28.75 C.3 152 C4152 0
18411 H 16 76.72 29.31 H 152 C4152 0
18412 H 17.22 75.77 29.28 H 152 C4152 0
18413 H 17.17 77 28.34 H 152 C4152 0
18414 C 12.89 73.22 29.68 C.3 152 C4152 0
18415 C 13.87 73.9 30.44 C.3 152 C4152 0
18416 H 12.33 72.73 30.26 H 152 C4152 0
18417 H 14.45 73.27 30.83 H 152 C4152 0
18418 H 13.44 74.4 31.12 H 152 C4152 0
18419 C1 14.66 74.84 29.52 C.3 152 C4152 0
18420 O2 14.87 76.01 29.86 O.3 152 C4152 0
18421 O3 15.14 74.39 28.33 O.3 152 C4152 0
18422 C 13.59 72.26 28.7 C.3 152 C4152 0
18423 H 12.93 71.8 28.19 H 152 C4152 0
18424 H 14.15 72.75 28.12 H 152 C4152 0
18425 H 14.1 71.63 29.19 H 152 C4152 0
18426 C 9.83 75.24 27.43 C.3 152 C4152 0
18427 C 10.8 74.48 26.76 C.3 152 C4152 0
18428 H 9.26 75.66 26.8 H 152 C4152 0
18429 H 11.39 75.07 26.3 H 152 C4152 0
18430 H 10.37 73.9 26.14 H 152 C4152 0
18431 C1 11.59 73.65 27.78 C.3 152 C4152 0
18432 O2 11.8 72.45 27.56 O.3 152 C4152 0
18433 O3 12.07 74.23 28.91 O.3 152 C4152 0
18434 C 10.52 76.3 28.3 C.3 152 C4152 0
18435 H 9.86 76.81 28.76 H 152 C4152 0
18436 H 11.08 75.88 28.94 H 152 C4152 0
18437 H 11.04 76.88 27.75 H 152 C4152 0
18438 C 6.76 73.49 29.89 C.3 152 C4152 0
18439 C 7.73 74.31 30.48 C.3 152 C4152 0
18440 H 6.19 73.13 30.57 H 152 C4152 0
18441 H 8.32 73.78 31 H 152 C4152 0
18442 H 7.31 74.95 31.03 H 152 C4152 0
18443 C1 8.53 75.03 29.37 C.3 152 C4152 0
18444 O2 8.73 76.24 29.45 O.3 152 C4152 0
18445 O3 9 74.33 28.31 O.3 152 C4152 0
18446 C 7.45 72.33 29.14 C.3 152 C4152 0
18447 H 6.79 71.77 28.75 H 152 C4152 0
18448 H 8.02 72.68 28.47 H 152 C4152 0
18449 H 7.97 71.82 29.76 H 152 C4152 0
18450 H 3.17 74.52 27.92 H 153 C4153 0
18451 C 3.69 74.95 27.25 C.3 153 C4153 0
18452 C 4.66 74.07 26.76 C.3 153 C4153 0
18453 H 3.13 75.23 26.54 H 153 C4153 0
18454 H 5.25 74.54 26.19 H 153 C4153 0
18455 H 4.24 73.37 26.28 H 153 C4153 0
18456 C1 5.46 73.48 27.94 C.3 153 C4153 0
18457 O2 5.67 72.27 28 O.3 153 C4153 0
18458 O3 5.94 74.29 28.92 O.3 153 C4153 0
18459 C 4.38 76.19 27.87 C.3 153 C4153 0
18460 H 3.72 76.78 28.2 H 153 C4153 0
18461 H 4.95 75.91 28.58 H 153 C4153 0
18462 H 4.9 76.62 27.2 H 153 C4153 0
18463 C 92.65 75.04 38.73 C.3 154 C4154 0
18464 C 93.62 74.2 38.18 C.3 154 C4154 0
18465 H 92.09 75.37 38.04 H 154 C4154 0
18466 H 94.21 74.71 37.64 H 154 C4154 0
18467 H 93.2 73.53 37.65 H 154 C4154 0
18468 C1 94.42 73.52 39.31 C.3 154 C4154 0
18469 O2 94.63 72.31 39.28 O.3 154 C4154 0
18470 O3 94.9 74.26 40.34 O.3 154 C4154 0
18471 H5 95.42 73.71 40.92 H 154 C4154 0
18472 C 93.34 76.22 39.44 C.3 154 C4154 0
18473 H 92.68 76.8 39.81 H 154 C4154 0
18474 H 93.91 75.9 40.12 H 154 C4154 0
18475 H 93.86 76.71 38.8 H 154 C4154 0
18476 C 89.58 73.68 41.42 C.3 155 C4155 0
18477 C 90.55 74.58 41.88 C.3 155 C4155 0
18478 H 89.02 73.43 42.14 H 155 C4155 0
18479 H 91.15 74.13 42.48 H 155 C4155 0
18480 H 90.13 75.3 42.33 H 155 C4155 0
18481 C1 91.35 75.12 40.68 C.3 155 C4155 0
18482 O2 91.56 76.33 40.58 O.3 155 C4155 0
18483 O3 91.83 74.27 39.74 O.3 155 C4155 0
18484 C 90.28 72.42 40.86 C.3 155 C4155 0
18485 H 89.62 71.81 40.55 H 155 C4155 0
18486 H 90.84 72.67 40.14 H 155 C4155 0
18487 H 90.79 72.01 41.54 H 155 C4155 0
18488 C 86.52 74.74 38.6 C.3 155 C4155 0
18489 C 87.49 73.79 38.24 C.3 155 C4155 0
18490 H 85.95 74.9 37.85 H 155 C4155 0
18491 H 88.08 74.17 37.6 H 155 C4155 0
18492 H 87.06 73.03 37.87 H 155 C4155 0
18493 C1 88.28 73.38 39.5 C.3 155 C4155 0
18494 O2 88.49 72.19 39.73 O.3 155 C4155 0
18495 O3 88.76 74.33 40.34 O.3 155 C4155 0
18496 C 87.21 76.05 39.02 C.3 155 C4155 0
18497 H 86.55 76.69 39.26 H 155 C4155 0
18498 H 87.77 75.88 39.77 H 155 C4155 0
18499 H 87.73 76.38 38.3 H 155 C4155 0
18500 C 83.45 74 41.52 C.3 155 C4155 0
18501 C 84.42 74.97 41.77 C.3 155 C4155 0
18502 H 82.88 73.91 42.28 H 155 C4155 0
18503 H 85.01 74.67 42.45 H 155 C4155 0
18504 H 84 75.78 42.06 H 155 C4155 0
18505 C1 85.22 75.25 40.48 C.3 155 C4155 0
18506 O2 85.42 76.4 40.12 O.3 155 C4155 0
18507 O3 85.69 74.21 39.75 O.3 155 C4155 0
18508 C 84.14 72.65 41.25 C.3 155 C4155 0
18509 H 83.48 71.98 41.08 H 155 C4155 0
18510 H 84.71 72.73 40.49 H 155 C4155 0
18511 H 84.66 72.4 42 H 155 C4155 0
18512 C 80.38 74.41 38.53 C.3 155 C4155 0
18513 C 81.35 73.41 38.4 C.3 155 C4155 0
18514 H 79.82 74.41 37.77 H 155 C4155 0
18515 H 81.94 73.64 37.69 H 155 C4155 0
18516 H 80.93 72.58 38.2 H 155 C4155 0
18517 C1 82.15 73.28 39.71 C.3 155 C4155 0
18518 O2 82.36 72.17 40.2 O.3 155 C4155 0
18519 O3 82.63 74.4 40.32 O.3 155 C4155 0
18520 C 81.07 75.78 38.66 C.3 155 C4155 0
18521 H 80.41 76.46 38.76 H 155 C4155 0
18522 H 81.64 75.78 39.42 H 155 C4155 0
18523 H 81.59 75.95 37.88 H 155 C4155 0
18524 C 77.31 74.33 41.55 C.3 155 C4155 0
18525 C 78.28 75.34 41.58 C.3 155 C4155 0
18526 H 76.75 74.41 42.31 H 155 C4155 0
18527 H 78.88 75.19 42.31 H 155 C4155 0
18528 H 77.86 76.18 41.68 H 155 C4155 0
18529 C1 79.08 75.32 40.26 C.3 155 C4155 0
18530 O2 79.29 76.37 39.65 O.3 155 C4155 0
18531 O3 79.56 74.14 39.77 O.3 155 C4155 0
18532 C 78.01 72.95 41.58 C.3 155 C4155 0
18533 H 77.35 72.27 41.56 H 155 C4155 0
18534 H 78.57 72.87 40.82 H 155 C4155 0
18535 H 78.52 72.87 42.37 H 155 C4155 0
18536 C 74.25 74.08 38.54 C.3 155 C4155 0
18537 C 75.22 73.07 38.63 C.3 155 C4155 0
18538 H 73.68 73.91 37.8 H 155 C4155 0
18539 H 75.81 73.13 37.89 H 155 C4155 0
18540 H 74.79 72.22 38.62 H 155 C4155 0
18541 C1 76.01 73.23 39.94 C.3 155 C4155 0
18542 O2 76.22 72.26 40.66 O.3 155 C4155 0
18543 O3 76.49 74.46 40.29 O.3 155 C4155 0
18544 C 74.94 75.44 38.37 C.3 155 C4155 0
18545 H 74.28 76.12 38.31 H 155 C4155 0
18546 H 75.5 75.61 39.11 H 155 C4155 0
18547 H 75.46 75.43 37.57 H 155 C4155 0
18548 C 71.18 74.66 41.51 C.3 155 C4155 0
18549 C 72.15 75.65 41.31 C.3 155 C4155 0
18550 H 70.61 74.91 42.23 H 155 C4155 0
18551 H 72.74 75.67 42.05 H 155 C4155 0
18552 H 71.73 76.5 41.22 H 155 C4155 0
18553 C1 72.95 75.34 40.03 C.3 155 C4155 0
18554 O2 73.15 76.23 39.2 O.3 155 C4155 0
18555 O3 73.42 74.09 39.81 O.3 155 C4155 0
18556 C 71.87 73.32 41.83 C.3 155 C4155 0
18557 H 71.21 72.65 41.97 H 155 C4155 0
18558 H 72.44 73.08 41.11 H 155 C4155 0
18559 H 72.39 73.42 42.62 H 155 C4155 0
18560 C 68.11 73.75 38.63 C.3 155 C4155 0
18561 C 69.08 72.79 38.93 C.3 155 C4155 0
18562 H 67.55 73.42 37.94 H 155 C4155 0
18563 H 69.67 72.69 38.19 H 155 C4155 0
18564 H 68.66 71.96 39.11 H 155 C4155 0
18565 C1 69.88 73.24 40.17 C.3 155 C4155 0
18566 O2 70.09 72.45 41.09 O.3 155 C4155 0
18567 O3 70.36 74.51 40.25 O.3 155 C4155 0
18568 C 68.8 75.04 38.15 C.3 155 C4155 0
18569 H 68.14 75.7 37.95 H 155 C4155 0
18570 H 69.37 75.37 38.84 H 155 C4155 0
18571 H 69.32 74.86 37.38 H 155 C4155 0
18572 C 65.04 74.97 41.39 C.3 155 C4155 0
18573 C 66.01 75.9 40.98 C.3 155 C4155 0
18574 H 64.48 75.38 42.04 H 155 C4155 0
18575 H 66.6 76.08 41.7 H 155 C4155 0
18576 H 65.59 76.7 40.71 H 155 C4155 0
18577 C1 66.81 75.32 39.8 C.3 155 C4155 0
18578 O2 67.02 76 38.8 O.3 155 C4155 0
18579 O3 67.29 74.04 39.86 O.3 155 C4155 0
18580 C 65.74 73.74 42 C.3 155 C4155 0
18581 H 65.08 73.12 42.28 H 155 C4155 0
18582 H 66.3 73.34 41.35 H 155 C4155 0
18583 H 66.25 74.01 42.75 H 155 C4155 0
18584 C 61.98 73.46 38.78 C.3 155 C4155 0
18585 C 62.95 72.58 39.29 C.3 155 C4155 0
18586 H 61.41 72.98 38.18 H 155 C4155 0
18587 H 63.54 72.32 38.59 H 155 C4155 0
18588 H 62.52 71.81 39.65 H 155 C4155 0
18589 C1 63.74 73.29 40.4 C.3 155 C4155 0
18590 O2 63.95 72.72 41.47 O.3 155 C4155 0
18591 O3 64.22 74.55 40.2 O.3 155 C4155 0
18592 C 62.67 74.61 38.03 C.3 155 C4155 0
18593 H 62.01 75.2 37.69 H 155 C4155 0
18594 H 63.23 75.08 38.63 H 155 C4155 0
18595 H 63.19 74.26 37.32 H 155 C4155 0
18596 C 58.91 75.25 41.2 C.3 155 C4155 0
18597 C 59.88 76.06 40.6 C.3 155 C4155 0
18598 H 58.34 75.79 41.75 H 155 C4155 0
18599 H 60.47 76.4 41.27 H 155 C4155 0
18600 H 59.46 76.79 40.16 H 155 C4155 0
18601 C1 60.68 75.24 39.58 C.3 155 C4155 0
18602 O2 60.88 75.69 38.45 O.3 155 C4155 0
18603 O3 61.15 74.01 39.92 O.3 155 C4155 0
18604 C 59.6 74.19 42.07 C.3 155 C4155 0
18605 H 58.94 73.64 42.48 H 155 C4155 0
18606 H 60.17 73.65 41.53 H 155 C4155 0
18607 H 60.12 74.61 42.75 H 155 C4155 0
18608 C 55.84 73.2 38.99 C.3 155 C4155 0
18609 C 56.81 72.46 39.68 C.3 155 C4155 0
18610 H 55.27 72.61 38.51 H 155 C4155 0
18611 H 57.4 72.05 39.06 H 155 C4155 0
18612 H 56.39 71.79 40.2 H 155 C4155 0
18613 C1 57.61 73.39 40.61 C.3 155 C4155 0
18614 O2 57.81 73.07 41.78 O.3 155 C4155 0
18615 O3 58.09 74.58 40.13 O.3 155 C4155 0
18616 C 56.53 74.16 38.01 C.3 155 C4155 0
18617 H 55.87 74.67 37.55 H 155 C4155 0
18618 H 57.1 74.75 38.49 H 155 C4155 0
18619 H 57.05 73.67 37.39 H 155 C4155 0
18620 C 52.77 75.49 40.96 C.3 155 C4155 0
18621 C 53.74 76.15 40.2 C.3 155 C4155 0
18622 H 52.21 76.13 41.38 H 155 C4155 0
18623 H 54.33 76.62 40.77 H 155 C4155 0
18624 H 53.32 76.76 39.61 H 155 C4155 0
18625 C1 54.54 75.11 39.38 C.3 155 C4155 0
18626 O2 54.75 75.3 38.18 O.3 155 C4155 0
18627 O3 55.02 73.99 39.98 O.3 155 C4155 0
18628 C 53.46 74.64 42.05 C.3 155 C4155 0
18629 H 52.81 74.19 42.56 H 155 C4155 0
18630 H 54.03 74 41.63 H 155 C4155 0
18631 H 53.98 75.2 42.61 H 155 C4155 0
18632 C 49.71 73 39.26 C.3 155 C4155 0
18633 C 50.68 72.42 40.09 C.3 155 C4155 0
18634 H 49.14 72.31 38.92 H 155 C4155 0
18635 H 51.27 71.89 39.57 H 155 C4155 0
18636 H 50.25 71.88 40.75 H 155 C4155 0
18637 C1 51.47 73.54 40.79 C.3 155 C4155 0
18638 O2 51.68 73.49 42 O.3 155 C4155 0
18639 O3 51.95 74.59 40.07 O.3 155 C4155 0
18640 C 50.4 73.72 38.09 C.3 155 C4155 0
18641 H 49.74 74.11 37.52 H 155 C4155 0
18642 H 50.96 74.4 38.43 H 155 C4155 0
18643 H 50.91 73.1 37.59 H 155 C4155 0
18644 C 46.64 75.66 40.68 C.3 155 C4155 0
18645 C 47.61 76.14 39.79 C.3 155 C4155 0
18646 H 46.07 76.38 40.94 H 155 C4155 0
18647 H 48.2 76.72 40.24 H 155 C4155 0
18648 H 47.19 76.6 39.08 H 155 C4155 0
18649 C1 48.41 74.95 39.22 C.3 155 C4155 0
18650 O2 48.61 74.87 38.01 O.3 155 C4155 0
18651 O3 48.88 73.98 40.05 O.3 155 C4155 0
18652 C 47.33 75.07 41.92 C.3 155 C4155 0
18653 H 46.67 74.75 42.52 H 155 C4155 0
18654 H 47.9 74.35 41.66 H 155 C4155 0
18655 H 47.85 75.74 42.34 H 155 C4155 0
18656 C 43.57 72.86 39.56 C.3 155 C4155 0
18657 C 44.54 72.48 40.5 C.3 155 C4155 0
18658 H 43.01 72.11 39.38 H 155 C4155 0
18659 H 45.13 71.85 40.11 H 155 C4155 0
18660 H 44.12 72.1 41.26 H 155 C4155 0
18661 C1 45.34 73.73 40.94 C.3 155 C4155 0
18662 O2 45.54 73.94 42.13 O.3 155 C4155 0
18663 O3 45.82 74.59 40 O.3 155 C4155 0
18664 C 44.26 73.31 38.26 C.3 155 C4155 0
18665 H 43.6 73.56 37.63 H 155 C4155 0
18666 H 44.83 74.05 38.44 H 155 C4155 0
18667 H 44.78 72.59 37.91 H 155 C4155 0
18668 C 40.5 75.77 40.36 C.3 155 C4155 0
18669 C 41.47 76.03 39.39 C.3 155 C4155 0
18670 H 39.94 76.52 40.46 H 155 C4155 0
18671 H 42.06 76.71 39.7 H 155 C4155 0
18672 H 41.05 76.33 38.59 H 155 C4155 0
18673 C1 42.27 74.75 39.09 C.3 155 C4155 0
18674 O2 42.48 74.41 37.93 O.3 155 C4155 0
18675 O3 42.75 73.99 40.12 O.3 155 C4155 0
18676 C 41.19 75.46 41.7 C.3 155 C4155 0
18677 H 40.54 75.28 42.36 H 155 C4155 0
18678 H 41.76 74.71 41.6 H 155 C4155 0
18679 H 41.71 76.21 41.97 H 155 C4155 0
18680 C 37.44 72.79 39.89 C.3 155 C4155 0
18681 C 38.41 72.63 40.89 C.3 155 C4155 0
18682 H 36.87 72.02 39.88 H 155 C4155 0
18683 H 39 71.92 40.65 H 155 C4155 0
18684 H 37.98 72.42 41.71 H 155 C4155 0
18685 C1 39.2 73.94 41.04 C.3 155 C4155 0
18686 O2 39.41 74.41 42.16 O.3 155 C4155 0
18687 O3 39.68 74.58 39.94 O.3 155 C4155 0
18688 C 38.13 72.94 38.52 C.3 155 C4155 0
18689 H 37.47 73.05 37.85 H 155 C4155 0
18690 H 38.69 73.7 38.54 H 155 C4155 0
18691 H 38.64 72.16 38.34 H 155 C4155 0
18692 C 34.37 75.8 40.03 C.3 155 C4155 0
18693 C 35.34 75.85 39.02 C.3 155 C4155 0
18694 H 33.8 76.56 39.96 H 155 C4155 0
18695 H 35.93 76.57 39.18 H 155 C4155 0
18696 H 34.91 75.96 38.18 H 155 C4155 0
18697 C1 36.14 74.53 39.01 C.3 155 C4155 0
18698 O2 36.34 73.94 37.95 O.3 155 C4155 0
18699 O3 36.61 74.02 40.18 O.3 155 C4155 0
18700 C 35.06 75.8 41.4 C.3 155 C4155 0
18701 H 34.4 75.77 42.09 H 155 C4155 0
18702 H 35.62 75.04 41.47 H 155 C4155 0
18703 H 35.58 76.59 41.5 H 155 C4155 0
18704 C 31.3 72.79 40.23 C.3 155 C4155 0
18705 C 32.27 72.86 41.23 C.3 155 C4155 0
18706 H 30.73 72.04 40.38 H 155 C4155 0
18707 H 32.86 72.11 41.15 H 155 C4155 0
18708 H 31.85 72.83 42.08 H 155 C4155 0
18709 C1 33.07 74.17 41.09 C.3 155 C4155 0
18710 O2 33.27 74.87 42.08 O.3 155 C4155 0
18711 O3 33.54 74.54 39.88 O.3 155 C4155 0
18712 C 31.99 72.64 38.86 C.3 155 C4155 0
18713 H 31.33 72.59 38.17 H 155 C4155 0
18714 H 32.56 73.39 38.7 H 155 C4155 0
18715 H 32.51 71.84 38.85 H 155 C4155 0
18716 C 28.23 75.76 39.7 C.3 155 C4155 0
18717 C 29.2 75.59 38.7 C.3 155 C4155 0
18718 H 27.67 76.49 39.46 H 155 C4155 0
18719 H 29.79 76.33 38.7 H 155 C4155 0
18720 H 28.78 75.51 37.86 H 155 C4155 0
18721 C1 30 74.3 38.99 C.3 155 C4155 0
18722 O2 30.21 73.49 38.08 O.3 155 C4155 0
18723 O3 30.48 74.06 40.24 O.3 155 C4155 0
18724 C 28.92 76.06 41.04 C.3 155 C4155 0
18725 H 28.27 76.18 41.71 H 155 C4155 0
18726 H 29.49 75.34 41.27 H 155 C4155 0
18727 H 29.44 76.86 40.96 H 155 C4155 0
18728 C 25.17 72.87 40.55 C.3 155 C4155 0
18729 C 26.14 73.15 41.52 C.3 155 C4155 0
18730 H 24.6 72.17 40.87 H 155 C4155 0
18731 H 26.73 72.41 41.6 H 155 C4155 0
18732 H 25.71 73.32 42.35 H 155 C4155 0
18733 C1 26.93 74.4 41.09 C.3 155 C4155 0
18734 O2 27.14 75.3 41.9 O.3 155 C4155 0
18735 O3 27.41 74.5 39.83 O.3 155 C4155 0
18736 C 25.86 72.42 39.25 C.3 155 C4155 0
18737 H 25.2 72.23 38.59 H 155 C4155 0
18738 H 26.42 73.11 38.94 H 155 C4155 0
18739 H 26.37 71.64 39.42 H 155 C4155 0
18740 C 22.1 75.65 39.38 C.3 155 C4155 0
18741 C 23.07 75.26 38.45 C.3 155 C4155 0
18742 H 21.53 76.31 38.99 H 155 C4155 0
18743 H 23.66 75.98 38.28 H 155 C4155 0
18744 H 22.64 75 37.64 H 155 C4155 0
18745 C1 23.87 74.07 39.01 C.3 155 C4155 0
18746 O2 24.07 73.08 38.31 O.3 155 C4155 0
18747 O3 24.34 74.1 40.28 O.3 155 C4155 0
18748 C 22.79 76.24 40.63 C.3 155 C4155 0
18749 H 22.13 76.51 41.26 H 155 C4155 0
18750 H 23.35 75.58 41.01 H 155 C4155 0
18751 H 23.31 77 40.37 H 155 C4155 0
18752 C 19.03 73.01 40.85 C.3 155 C4155 0
18753 C 20 73.51 41.73 C.3 155 C4155 0
18754 H 18.46 72.41 41.31 H 155 C4155 0
18755 H 20.59 72.8 41.98 H 155 C4155 0
18756 H 19.58 73.85 42.51 H 155 C4155 0
18757 C1 20.8 74.63 41.04 C.3 155 C4155 0
18758 O2 21 75.69 41.64 O.3 155 C4155 0
18759 O3 21.27 74.45 39.78 O.3 155 C4155 0
18760 C 19.72 72.29 39.68 C.3 155 C4155 0
18761 H 19.06 71.96 39.08 H 155 C4155 0
18762 H 20.29 72.9 39.22 H 155 C4155 0
18763 H 20.24 71.57 40.02 H 155 C4155 0
18764 C 15.96 75.47 39.1 C.3 155 C4155 0
18765 C 16.93 74.89 38.28 C.3 155 C4155 0
18766 H 15.4 76.03 38.58 H 155 C4155 0
18767 H 17.52 75.56 37.96 H 155 C4155 0
18768 H 16.51 74.46 37.54 H 155 C4155 0
18769 C1 17.73 73.85 39.09 C.3 155 C4155 0
18770 O2 17.94 72.73 38.62 O.3 155 C4155 0
18771 O3 18.21 74.16 40.32 O.3 155 C4155 0
18772 C 16.65 76.32 40.18 C.3 155 C4155 0
18773 H 16 76.72 40.74 H 155 C4155 0
18774 H 17.22 75.77 40.71 H 155 C4155 0
18775 H 17.17 77 39.77 H 155 C4155 0
18776 C 12.89 73.22 41.11 C.3 155 C4155 0
18777 C 13.87 73.9 41.87 C.3 155 C4155 0
18778 H 12.33 72.73 41.69 H 155 C4155 0
18779 H 14.45 73.27 42.26 H 155 C4155 0
18780 H 13.44 74.4 42.55 H 155 C4155 0
18781 C1 14.66 74.84 40.95 C.3 155 C4155 0
18782 O2 14.87 76.01 41.29 O.3 155 C4155 0
18783 O3 15.14 74.39 39.76 O.3 155 C4155 0
18784 C 13.59 72.26 40.13 C.3 155 C4155 0
18785 H 12.93 71.8 39.62 H 155 C4155 0
18786 H 14.15 72.75 39.55 H 155 C4155 0
18787 H 14.1 71.63 40.62 H 155 C4155 0
18788 C 9.83 75.24 38.86 C.3 155 C4155 0
18789 C 10.8 74.48 38.19 C.3 155 C4155 0
18790 H 9.26 75.66 38.23 H 155 C4155 0
18791 H 11.39 75.07 37.73 H 155 C4155 0
18792 H 10.37 73.9 37.57 H 155 C4155 0
18793 C1 11.59 73.65 39.21 C.3 155 C4155 0
18794 O2 11.8 72.45 38.99 O.3 155 C4155 0
18795 O3 12.07 74.23 40.34 O.3 155 C4155 0
18796 C 10.52 76.3 39.73 C.3 155 C4155 0
18797 H 9.86 76.81 40.19 H 155 C4155 0
18798 H 11.08 75.88 40.37 H 155 C4155 0
18799 H 11.04 76.88 39.18 H 155 C4155 0
18800 C 6.76 73.49 41.32 C.3 155 C4155 0
18801 C 7.73 74.31 41.91 C.3 155 C4155 0
18802 H 6.19 73.13 42 H 155 C4155 0
18803 H 8.32 73.78 42.43 H 155 C4155 0
18804 H 7.31 74.95 42.46 H 155 C4155 0
18805 C1 8.53 75.03 40.8 C.3 155 C4155 0
18806 O2 8.73 76.24 40.88 O.3 155 C4155 0
18807 O3 9 74.33 39.74 O.3 155 C4155 0
18808 C 7.45 72.33 40.57 C.3 155 C4155 0
18809 H 6.79 71.77 40.18 H 155 C4155 0
18810 H 8.02 72.68 39.9 H 155 C4155 0
18811 H 7.97 71.82 41.19 H 155 C4155 0
18812 H 3.17 74.52 39.35 H 156 C4156 0
18813 C 3.69 74.95 38.68 C.3 156 C4156 0
18814 C 4.66 74.07 38.19 C.3 156 C4156 0
18815 H 3.13 75.23 37.97 H 156 C4156 0
18816 H 5.25 74.54 37.62 H 156 C4156 0
18817 H 4.24 73.37 37.71 H 156 C4156 0
18818 C1 5.46 73.48 39.37 C.3 156 C4156 0
18819 O2 5.67 72.27 39.43 O.3 156 C4156 0
18820 O3 5.94 74.29 40.35 O.3 156 C4156 0
18821 C 4.38 76.19 39.3 C.3 156 C4156 0
18822 H 3.72 76.78 39.63 H 156 C4156 0
18823 H 4.95 75.91 40.01 H 156 C4156 0
18824 H 4.9 76.62 38.63 H 156 C4156 0
18825 C 92.65 75.04 50.17 C.3 157 C4157 0
18826 C 93.62 74.2 49.62 C.3 157 C4157 0
18827 H 92.09 75.37 49.48 H 157 C4157 0
18828 H 94.21 74.71 49.08 H 157 C4157 0
18829 H 93.2 73.53 49.09 H 157 C4157 0
18830 C1 94.42 73.52 50.75 C.3 157 C4157 0
18831 O2 94.63 72.31 50.72 O.3 157 C4157 0
18832 O3 94.9 74.26 51.78 O.3 157 C4157 0
18833 H5 95.42 73.71 52.36 H 157 C4157 0
18834 C 93.34 76.22 50.88 C.3 157 C4157 0
18835 H 92.68 76.8 51.25 H 157 C4157 0
18836 H 93.91 75.9 51.56 H 157 C4157 0
18837 H 93.86 76.71 50.24 H 157 C4157 0
18838 C 89.58 73.68 52.86 C.3 158 C4158 0
18839 C 90.55 74.58 53.32 C.3 158 C4158 0
18840 H 89.02 73.43 53.58 H 158 C4158 0
18841 H 91.15 74.13 53.92 H 158 C4158 0
18842 H 90.13 75.3 53.77 H 158 C4158 0
18843 C1 91.35 75.12 52.12 C.3 158 C4158 0
18844 O2 91.56 76.33 52.02 O.3 158 C4158 0
18845 O3 91.83 74.27 51.18 O.3 158 C4158 0
18846 C 90.28 72.42 52.3 C.3 158 C4158 0
18847 H 89.62 71.81 51.99 H 158 C4158 0
18848 H 90.84 72.67 51.58 H 158 C4158 0
18849 H 90.79 72.01 52.98 H 158 C4158 0
18850 C 86.52 74.74 50.04 C.3 158 C4158 0
18851 C 87.49 73.79 49.68 C.3 158 C4158 0
18852 H 85.95 74.9 49.29 H 158 C4158 0
18853 H 88.08 74.17 49.04 H 158 C4158 0
18854 H 87.06 73.03 49.31 H 158 C4158 0
18855 C1 88.28 73.38 50.94 C.3 158 C4158 0
18856 O2 88.49 72.19 51.17 O.3 158 C4158 0
18857 O3 88.76 74.33 51.78 O.3 158 C4158 0
18858 C 87.21 76.05 50.46 C.3 158 C4158 0
18859 H 86.55 76.69 50.7 H 158 C4158 0
18860 H 87.77 75.88 51.21 H 158 C4158 0
18861 H 87.73 76.38 49.74 H 158 C4158 0
18862 C 83.45 74 52.96 C.3 158 C4158 0
18863 C 84.42 74.97 53.21 C.3 158 C4158 0
18864 H 82.88 73.91 53.72 H 158 C4158 0
18865 H 85.01 74.67 53.89 H 158 C4158 0
18866 H 84 75.78 53.5 H 158 C4158 0
18867 C1 85.22 75.25 51.92 C.3 158 C4158 0
18868 O2 85.42 76.4 51.56 O.3 158 C4158 0
18869 O3 85.69 74.21 51.19 O.3 158 C4158 0
18870 C 84.14 72.65 52.69 C.3 158 C4158 0
18871 H 83.48 71.98 52.52 H 158 C4158 0
18872 H 84.71 72.73 51.93 H 158 C4158 0
18873 H 84.66 72.4 53.44 H 158 C4158 0
18874 C 80.38 74.41 49.97 C.3 158 C4158 0
18875 C 81.35 73.41 49.84 C.3 158 C4158 0
18876 H 79.82 74.41 49.21 H 158 C4158 0
18877 H 81.94 73.64 49.13 H 158 C4158 0
18878 H 80.93 72.58 49.64 H 158 C4158 0
18879 C1 82.15 73.28 51.15 C.3 158 C4158 0
18880 O2 82.36 72.17 51.64 O.3 158 C4158 0
18881 O3 82.63 74.4 51.76 O.3 158 C4158 0
18882 C 81.07 75.78 50.1 C.3 158 C4158 0
18883 H 80.41 76.46 50.2 H 158 C4158 0
18884 H 81.64 75.78 50.86 H 158 C4158 0
18885 H 81.59 75.95 49.32 H 158 C4158 0
18886 C 77.31 74.33 52.99 C.3 158 C4158 0
18887 C 78.28 75.34 53.02 C.3 158 C4158 0
18888 H 76.75 74.41 53.75 H 158 C4158 0
18889 H 78.88 75.19 53.75 H 158 C4158 0
18890 H 77.86 76.18 53.12 H 158 C4158 0
18891 C1 79.08 75.32 51.7 C.3 158 C4158 0
18892 O2 79.29 76.37 51.09 O.3 158 C4158 0
18893 O3 79.56 74.14 51.21 O.3 158 C4158 0
18894 C 78.01 72.95 53.02 C.3 158 C4158 0
18895 H 77.35 72.27 53 H 158 C4158 0
18896 H 78.57 72.87 52.26 H 158 C4158 0
18897 H 78.52 72.87 53.81 H 158 C4158 0
18898 C 74.25 74.08 49.98 C.3 158 C4158 0
18899 C 75.22 73.07 50.07 C.3 158 C4158 0
18900 H 73.68 73.91 49.24 H 158 C4158 0
18901 H 75.81 73.13 49.33 H 158 C4158 0
18902 H 74.79 72.22 50.06 H 158 C4158 0
18903 C1 76.01 73.23 51.38 C.3 158 C4158 0
18904 O2 76.22 72.26 52.1 O.3 158 C4158 0
18905 O3 76.49 74.46 51.73 O.3 158 C4158 0
18906 C 74.94 75.44 49.81 C.3 158 C4158 0
18907 H 74.28 76.12 49.75 H 158 C4158 0
18908 H 75.5 75.61 50.55 H 158 C4158 0
18909 H 75.46 75.43 49.01 H 158 C4158 0
18910 C 71.18 74.66 52.95 C.3 158 C4158 0
18911 C 72.15 75.65 52.75 C.3 158 C4158 0
18912 H 70.61 74.91 53.67 H 158 C4158 0
18913 H 72.74 75.67 53.49 H 158 C4158 0
18914 H 71.73 76.5 52.66 H 158 C4158 0
18915 C1 72.95 75.34 51.47 C.3 158 C4158 0
18916 O2 73.15 76.23 50.64 O.3 158 C4158 0
18917 O3 73.42 74.09 51.25 O.3 158 C4158 0
18918 C 71.87 73.32 53.27 C.3 158 C4158 0
18919 H 71.21 72.65 53.41 H 158 C4158 0
18920 H 72.44 73.08 52.55 H 158 C4158 0
18921 H 72.39 73.42 54.06 H 158 C4158 0
18922 C 68.11 73.75 50.07 C.3 158 C4158 0
18923 C 69.08 72.79 50.37 C.3 158 C4158 0
18924 H 67.55 73.42 49.38 H 158 C4158 0
18925 H 69.67 72.69 49.63 H 158 C4158 0
18926 H 68.66 71.96 50.55 H 158 C4158 0
18927 C1 69.88 73.24 51.61 C.3 158 C4158 0
18928 O2 70.09 72.45 52.53 O.3 158 C4158 0
18929 O3 70.36 74.51 51.69 O.3 158 C4158 0
18930 C 68.8 75.04 49.59 C.3 158 C4158 0
18931 H 68.14 75.7 49.39 H 158 C4158 0
18932 H 69.37 75.37 50.28 H 158 C4158 0
18933 H 69.32 74.86 48.82 H 158 C4158 0
18934 C 65.04 74.97 52.83 C.3 158 C4158 0
18935 C 66.01 75.9 52.42 C.3 158 C4158 0
18936 H 64.48 75.38 53.48 H 158 C4158 0
18937 H 66.6 76.08 53.14 H 158 C4158 0
18938 H 65.59 76.7 52.15 H 158 C4158 0
18939 C1 66.81 75.32 51.24 C.3 158 C4158 0
18940 O2 67.02 76 50.24 O.3 158 C4158 0
18941 O3 67.29 74.04 51.3 O.3 158 C4158 0
18942 C 65.74 73.74 53.44 C.3 158 C4158 0
18943 H 65.08 73.12 53.72 H 158 C4158 0
18944 H 66.3 73.34 52.79 H 158 C4158 0
18945 H 66.25 74.01 54.19 H 158 C4158 0
18946 C 61.98 73.46 50.22 C.3 158 C4158 0
18947 C 62.95 72.58 50.73 C.3 158 C4158 0
18948 H 61.41 72.98 49.62 H 158 C4158 0
18949 H 63.54 72.32 50.03 H 158 C4158 0
18950 H 62.52 71.81 51.09 H 158 C4158 0
18951 C1 63.74 73.29 51.84 C.3 158 C4158 0
18952 O2 63.95 72.72 52.91 O.3 158 C4158 0
18953 O3 64.22 74.55 51.64 O.3 158 C4158 0
18954 C 62.67 74.61 49.47 C.3 158 C4158 0
18955 H 62.01 75.2 49.13 H 158 C4158 0
18956 H 63.23 75.08 50.07 H 158 C4158 0
18957 H 63.19 74.26 48.76 H 158 C4158 0
18958 C 58.91 75.25 52.64 C.3 158 C4158 0
18959 C 59.88 76.06 52.04 C.3 158 C4158 0
18960 H 58.34 75.79 53.19 H 158 C4158 0
18961 H 60.47 76.4 52.71 H 158 C4158 0
18962 H 59.46 76.79 51.6 H 158 C4158 0
18963 C1 60.68 75.24 51.02 C.3 158 C4158 0
18964 O2 60.88 75.69 49.89 O.3 158 C4158 0
18965 O3 61.15 74.01 51.36 O.3 158 C4158 0
18966 C 59.6 74.19 53.51 C.3 158 C4158 0
18967 H 58.94 73.64 53.92 H 158 C4158 0
18968 H 60.17 73.65 52.97 H 158 C4158 0
18969 H 60.12 74.61 54.19 H 158 C4158 0
18970 C 55.84 73.2 50.43 C.3 158 C4158 0
18971 C 56.81 72.46 51.12 C.3 158 C4158 0
18972 H 55.27 72.61 49.95 H 158 C4158 0
18973 H 57.4 72.05 50.5 H 158 C4158 0
18974 H 56.39 71.79 51.64 H 158 C4158 0
18975 C1 57.61 73.39 52.05 C.3 158 C4158 0
18976 O2 57.81 73.07 53.22 O.3 158 C4158 0
18977 O3 58.09 74.58 51.57 O.3 158 C4158 0
18978 C 56.53 74.16 49.45 C.3 158 C4158 0
18979 H 55.87 74.67 48.99 H 158 C4158 0
18980 H 57.1 74.75 49.93 H 158 C4158 0
18981 H 57.05 73.67 48.83 H 158 C4158 0
18982 C 52.77 75.49 52.4 C.3 158 C4158 0
18983 C 53.74 76.15 51.64 C.3 158 C4158 0
18984 H 52.21 76.13 52.82 H 158 C4158 0
18985 H 54.33 76.62 52.21 H 158 C4158 0
18986 H 53.32 76.76 51.05 H 158 C4158 0
18987 C1 54.54 75.11 50.82 C.3 158 C4158 0
18988 O2 54.75 75.3 49.62 O.3 158 C4158 0
18989 O3 55.02 73.99 51.42 O.3 158 C4158 0
18990 C 53.46 74.64 53.49 C.3 158 C4158 0
18991 H 52.81 74.19 54 H 158 C4158 0
18992 H 54.03 74 53.07 H 158 C4158 0
18993 H 53.98 75.2 54.05 H 158 C4158 0
18994 C 49.71 73 50.7 C.3 158 C4158 0
18995 C 50.68 72.42 51.53 C.3 158 C4158 0
18996 H 49.14 72.31 50.36 H 158 C4158 0
18997 H 51.27 71.89 51.01 H 158 C4158 0
18998 H 50.25 71.88 52.19 H 158 C4158 0
18999 C1 51.47 73.54 52.23 C.3 158 C4158 0
19000 O2 51.68 73.49 53.44 O.3 158 C4158 0
19001 O3 51.95 74.59 51.51 O.3 158 C4158 0
19002 C 50.4 73.72 49.53 C.3 158 C4158 0
19003 H 49.74 74.11 48.96 H 158 C4158 0
19004 H 50.96 74.4 49.87 H 158 C4158 0
19005 H 50.91 73.1 49.03 H 158 C4158 0
19006 C 46.64 75.66 52.12 C.3 158 C4158 0
19007 C 47.61 76.14 51.23 C.3 158 C4158 0
19008 H 46.07 76.38 52.38 H 158 C4158 0
19009 H 48.2 76.72 51.68 H 158 C4158 0
19010 H 47.19 76.6 50.52 H 158 C4158 0
19011 C1 48.41 74.95 50.66 C.3 158 C4158 0
19012 O2 48.61 74.87 49.45 O.3 158 C4158 0
19013 O3 48.88 73.98 51.49 O.3 158 C4158 0
19014 C 47.33 75.07 53.36 C.3 158 C4158 0
19015 H 46.67 74.75 53.96 H 158 C4158 0
19016 H 47.9 74.35 53.1 H 158 C4158 0
19017 H 47.85 75.74 53.78 H 158 C4158 0
19018 C 43.57 72.86 51 C.3 158 C4158 0
19019 C 44.54 72.48 51.94 C.3 158 C4158 0
19020 H 43.01 72.11 50.82 H 158 C4158 0
19021 H 45.13 71.85 51.55 H 158 C4158 0
19022 H 44.12 72.1 52.7 H 158 C4158 0
19023 C1 45.34 73.73 52.38 C.3 158 C4158 0
19024 O2 45.54 73.94 53.57 O.3 158 C4158 0
19025 O3 45.82 74.59 51.44 O.3 158 C4158 0
19026 C 44.26 73.31 49.7 C.3 158 C4158 0
19027 H 43.6 73.56 49.07 H 158 C4158 0
19028 H 44.83 74.05 49.88 H 158 C4158 0
19029 H 44.78 72.59 49.35 H 158 C4158 0
19030 C 40.5 75.77 51.8 C.3 158 C4158 0
19031 C 41.47 76.03 50.83 C.3 158 C4158 0
19032 H 39.94 76.52 51.9 H 158 C4158 0
19033 H 42.06 76.71 51.14 H 158 C4158 0
19034 H 41.05 76.33 50.03 H 158 C4158 0
19035 C1 42.27 74.75 50.53 C.3 158 C4158 0
19036 O2 42.48 74.41 49.37 O.3 158 C4158 0
19037 O3 42.75 73.99 51.56 O.3 158 C4158 0
19038 C 41.19 75.46 53.14 C.3 158 C4158 0
19039 H 40.54 75.28 53.8 H 158 C4158 0
19040 H 41.76 74.71 53.04 H 158 C4158 0
19041 H 41.71 76.21 53.41 H 158 C4158 0
19042 C 37.44 72.79 51.33 C.3 158 C4158 0
19043 C 38.41 72.63 52.33 C.3 158 C4158 0
19044 H 36.87 72.02 51.32 H 158 C4158 0
19045 H 39 71.92 52.09 H 158 C4158 0
19046 H 37.98 72.42 53.15 H 158 C4158 0
19047 C1 39.2 73.94 52.48 C.3 158 C4158 0
19048 O2 39.41 74.41 53.6 O.3 158 C4158 0
19049 O3 39.68 74.58 51.38 O.3 158 C4158 0
19050 C 38.13 72.94 49.96 C.3 158 C4158 0
19051 H 37.47 73.05 49.29 H 158 C4158 0
19052 H 38.69 73.7 49.98 H 158 C4158 0
19053 H 38.64 72.16 49.78 H 158 C4158 0
19054 C 34.37 75.8 51.47 C.3 158 C4158 0
19055 C 35.34 75.85 50.46 C.3 158 C4158 0
19056 H 33.8 76.56 51.4 H 158 C4158 0
19057 H 35.93 76.57 50.62 H 158 C4158 0
19058 H 34.91 75.96 49.62 H 158 C4158 0
19059 C1 36.14 74.53 50.45 C.3 158 C4158 0
19060 O2 36.34 73.94 49.39 O.3 158 C4158 0
19061 O3 36.61 74.02 51.62 O.3 158 C4158 0
19062 C 35.06 75.8 52.84 C.3 158 C4158 0
19063 H 34.4 75.77 53.53 H 158 C4158 0
19064 H 35.62 75.04 52.91 H 158 C4158 0
19065 H 35.58 76.59 52.94 H 158 C4158 0
19066 C 31.3 72.79 51.67 C.3 158 C4158 0
19067 C 32.27 72.86 52.67 C.3 158 C4158 0
19068 H 30.73 72.04 51.82 H 158 C4158 0
19069 H 32.86 72.11 52.59 H 158 C4158 0
19070 H 31.85 72.83 53.52 H 158 C4158 0
19071 C1 33.07 74.17 52.53 C.3 158 C4158 0
19072 O2 33.27 74.87 53.52 O.3 158 C4158 0
19073 O3 33.54 74.54 51.32 O.3 158 C4158 0
19074 C 31.99 72.64 50.3 C.3 158 C4158 0
19075 H 31.33 72.59 49.61 H 158 C4158 0
19076 H 32.56 73.39 50.14 H 158 C4158 0
19077 H 32.51 71.84 50.29 H 158 C4158 0
19078 C 28.23 75.76 51.14 C.3 158 C4158 0
19079 C 29.2 75.59 50.14 C.3 158 C4158 0
19080 H 27.67 76.49 50.9 H 158 C4158 0
19081 H 29.79 76.33 50.14 H 158 C4158 0
19082 H 28.78 75.51 49.3 H 158 C4158 0
19083 C1 30 74.3 50.43 C.3 158 C4158 0
19084 O2 30.21 73.49 49.52 O.3 158 C4158 0
19085 O3 30.48 74.06 51.68 O.3 158 C4158 0
19086 C 28.92 76.06 52.48 C.3 158 C4158 0
19087 H 28.27 76.18 53.15 H 158 C4158 0
19088 H 29.49 75.34 52.71 H 158 C4158 0
19089 H 29.44 76.86 52.4 H 158 C4158 0
19090 C 25.17 72.87 51.99 C.3 158 C4158 0
19091 C 26.14 73.15 52.96 C.3 158 C4158 0
19092 H 24.6 72.17 52.31 H 158 C4158 0
19093 H 26.73 72.41 53.04 H 158 C4158 0
19094 H 25.71 73.32 53.79 H 158 C4158 0
19095 C1 26.93 74.4 52.53 C.3 158 C4158 0
19096 O2 27.14 75.3 53.34 O.3 158 C4158 0
19097 O3 27.41 74.5 51.27 O.3 158 C4158 0
19098 C 25.86 72.42 50.69 C.3 158 C4158 0
19099 H 25.2 72.23 50.03 H 158 C4158 0
19100 H 26.42 73.11 50.38 H 158 C4158 0
19101 H 26.37 71.64 50.86 H 158 C4158 0
19102 C 22.1 75.65 50.82 C.3 158 C4158 0
19103 C 23.07 75.26 49.89 C.3 158 C4158 0
19104 H 21.53 76.31 50.43 H 158 C4158 0
19105 H 23.66 75.98 49.72 H 158 C4158 0
19106 H 22.64 75 49.08 H 158 C4158 0
19107 C1 23.87 74.07 50.45 C.3 158 C4158 0
19108 O2 24.07 73.08 49.75 O.3 158 C4158 0
19109 O3 24.34 74.1 51.72 O.3 158 C4158 0
19110 C 22.79 76.24 52.07 C.3 158 C4158 0
19111 H 22.13 76.51 52.7 H 158 C4158 0
19112 H 23.35 75.58 52.45 H 158 C4158 0
19113 H 23.31 77 51.81 H 158 C4158 0
19114 C 19.03 73.01 52.29 C.3 158 C4158 0
19115 C 20 73.51 53.17 C.3 158 C4158 0
19116 H 18.46 72.41 52.75 H 158 C4158 0
19117 H 20.59 72.8 53.42 H 158 C4158 0
19118 H 19.58 73.85 53.95 H 158 C4158 0
19119 C1 20.8 74.63 52.48 C.3 158 C4158 0
19120 O2 21 75.69 53.08 O.3 158 C4158 0
19121 O3 21.27 74.45 51.22 O.3 158 C4158 0
19122 C 19.72 72.29 51.12 C.3 158 C4158 0
19123 H 19.06 71.96 50.52 H 158 C4158 0
19124 H 20.29 72.9 50.66 H 158 C4158 0
19125 H 20.24 71.57 51.46 H 158 C4158 0
19126 C 15.96 75.47 50.54 C.3 158 C4158 0
19127 C 16.93 74.89 49.72 C.3 158 C4158 0
19128 H 15.4 76.03 50.02 H 158 C4158 0
19129 H 17.52 75.56 49.4 H 158 C4158 0
19130 H 16.51 74.46 48.98 H 158 C4158 0
19131 C1 17.73 73.85 50.53 C.3 158 C4158 0
19132 O2 17.94 72.73 50.06 O.3 158 C4158 0
19133 O3 18.21 74.16 51.76 O.3 158 C4158 0
19134 C 16.65 76.32 51.62 C.3 158 C4158 0
19135 H 16 76.72 52.18 H 158 C4158 0
19136 H 17.22 75.77 52.15 H 158 C4158 0
19137 H 17.17 77 51.21 H 158 C4158 0
19138 C 12.89 73.22 52.55 C.3 158 C4158 0
19139 C 13.87 73.9 53.31 C.3 158 C4158 0
19140 H 12.33 72.73 53.13 H 158 C4158 0
19141 H 14.45 73.27 53.7 H 158 C4158 0
19142 H 13.44 74.4 53.99 H 158 C4158 0
19143 C1 14.66 74.84 52.39 C.3 158 C4158 0
19144 O2 14.87 76.01 52.73 O.3 158 C4158 0
19145 O3 15.14 74.39 51.2 O.3 158 C4158 0
19146 C 13.59 72.26 51.57 C.3 158 C4158 0
19147 H 12.93 71.8 51.06 H 158 C4158 0
19148 H 14.15 72.75 50.99 H 158 C4158 0
19149 H 14.1 71.63 52.06 H 158 C4158 0
19150 C 9.83 75.24 50.3 C.3 158 C4158 0
19151 C 10.8 74.48 49.63 C.3 158 C4158 0
19152 H 9.26 75.66 49.67 H 158 C4158 0
19153 H 11.39 75.07 49.17 H 158 C4158 0
19154 H 10.37 73.9 49.01 H 158 C4158 0
19155 C1 11.59 73.65 50.65 C.3 158 C4158 0
19156 O2 11.8 72.45 50.43 O.3 158 C4158 0
19157 O3 12.07 74.23 51.78 O.3 158 C4158 0
19158 C 10.52 76.3 51.17 C.3 158 C4158 0
19159 H 9.86 76.81 51.63 H 158 C4158 0
19160 H 11.08 75.88 51.81 H 158 C4158 0
19161 H 11.04 76.88 50.62 H 158 C4158 0
19162 C 6.76 73.49 52.76 C.3 158 C4158 0
19163 C 7.73 74.31 53.35 C.3 158 C4158 0
19164 H 6.19 73.13 53.44 H 158 C4158 0
19165 H 8.32 73.78 53.87 H 158 C4158 0
19166 H 7.31 74.95 53.9 H 158 C4158 0
19167 C1 8.53 75.03 52.24 C.3 158 C4158 0
19168 O2 8.73 76.24 52.32 O.3 158 C4158 0
19169 O3 9 74.33 51.18 O.3 158 C4158 0
19170 C 7.45 72.33 52.01 C.3 158 C4158 0
19171 H 6.79 71.77 51.62 H 158 C4158 0
19172 H 8.02 72.68 51.34 H 158 C4158 0
19173 H 7.97 71.82 52.63 H 158 C4158 0
19174 H 3.17 74.52 50.79 H 159 C4159 0
19175 C 3.69 74.95 50.12 C.3 159 C4159 0
19176 C 4.66 74.07 49.63 C.3 159 C4159 0
19177 H 3.13 75.23 49.41 H 159 C4159 0
19178 H 5.25 74.54 49.06 H 159 C4159 0
19179 H 4.24 73.37 49.15 H 159 C4159 0
19180 C1 5.46 73.48 50.81 C.3 159 C4159 0
19181 O2 5.67 72.27 50.87 O.3 159 C4159 0
19182 O3 5.94 74.29 51.79 O.3 159 C4159 0
19183 C 4.38 76.19 50.74 C.3 159 C4159 0
19184 H 3.72 76.78 51.07 H 159 C4159 0
19185 H 4.95 75.91 51.45 H 159 C4159 0
19186 H 4.9 76.62 50.07 H 159 C4159 0
19187 C 92.65 75.04 61.6 C.3 160 C4160 0
19188 C 93.62 74.2 61.05 C.3 160 C4160 0
19189 H 92.09 75.37 60.91 H 160 C4160 0
19190 H 94.21 74.71 60.51 H 160 C4160 0
19191 H 93.2 73.53 60.52 H 160 C4160 0
19192 C1 94.42 73.52 62.18 C.3 160 C4160 0
19193 O2 94.63 72.31 62.15 O.3 160 C4160 0
19194 O3 94.9 74.26 63.21 O.3 160 C4160 0
19195 H5 95.42 73.71 63.79 H 160 C4160 0
19196 C 93.34 76.22 62.31 C.3 160 C4160 0
19197 H 92.68 76.8 62.68 H 160 C4160 0
19198 H 93.91 75.9 62.99 H 160 C4160 0
19199 H 93.86 76.71 61.67 H 160 C4160 0
19200 C 89.58 73.68 64.29 C.3 161 C4161 0
19201 C 90.55 74.58 64.75 C.3 161 C4161 0
19202 H 89.02 73.43 65.01 H 161 C4161 0
19203 H 91.15 74.13 65.35 H 161 C4161 0
19204 H 90.13 75.3 65.2 H 161 C4161 0
19205 C1 91.35 75.12 63.55 C.3 161 C4161 0
19206 O2 91.56 76.33 63.45 O.3 161 C4161 0
19207 O3 91.83 74.27 62.61 O.3 161 C4161 0
19208 C 90.28 72.42 63.73 C.3 161 C4161 0
19209 H 89.62 71.81 63.42 H 161 C4161 0
19210 H 90.84 72.67 63.01 H 161 C4161 0
19211 H 90.79 72.01 64.41 H 161 C4161 0
19212 C 86.52 74.74 61.47 C.3 161 C4161 0
19213 C 87.49 73.79 61.11 C.3 161 C4161 0
19214 H 85.95 74.9 60.72 H 161 C4161 0
19215 H 88.08 74.17 60.47 H 161 C4161 0
19216 H 87.06 73.03 60.74 H 161 C4161 0
19217 C1 88.28 73.38 62.37 C.3 161 C4161 0
19218 O2 88.49 72.19 62.6 O.3 161 C4161 0
19219 O3 88.76 74.33 63.21 O.3 161 C4161 0
19220 C 87.21 76.05 61.89 C.3 161 C4161 0
19221 H 86.55 76.69 62.13 H 161 C4161 0
19222 H 87.77 75.88 62.64 H 161 C4161 0
19223 H 87.73 76.38 61.17 H 161 C4161 0
19224 C 83.45 74 64.39 C.3 161 C4161 0
19225 C 84.42 74.97 64.64 C.3 161 C4161 0
19226 H 82.88 73.91 65.15 H 161 C4161 0
19227 H 85.01 74.67 65.32 H 161 C4161 0
19228 H 84 75.78 64.93 H 161 C4161 0
19229 C1 85.22 75.25 63.35 C.3 161 C4161 0
19230 O2 85.42 76.4 62.99 O.3 161 C4161 0
19231 O3 85.69 74.21 62.62 O.3 161 C4161 0
19232 C 84.14 72.65 64.12 C.3 161 C4161 0
19233 H 83.48 71.98 63.95 H 161 C4161 0
19234 H 84.71 72.73 63.36 H 161 C4161 0
19235 H 84.66 72.4 64.87 H 161 C4161 0
19236 C 80.38 74.41 61.4 C.3 161 C4161 0
19237 C 81.35 73.41 61.27 C.3 161 C4161 0
19238 H 79.82 74.41 60.64 H 161 C4161 0
19239 H 81.94 73.64 60.56 H 161 C4161 0
19240 H 80.93 72.58 61.07 H 161 C4161 0
19241 C1 82.15 73.28 62.58 C.3 161 C4161 0
19242 O2 82.36 72.17 63.07 O.3 161 C4161 0
19243 O3 82.63 74.4 63.19 O.3 161 C4161 0
19244 C 81.07 75.78 61.53 C.3 161 C4161 0
19245 H 80.41 76.46 61.63 H 161 C4161 0
19246 H 81.64 75.78 62.29 H 161 C4161 0
19247 H 81.59 75.95 60.75 H 161 C4161 0
19248 C 77.31 74.33 64.42 C.3 161 C4161 0
19249 C 78.28 75.34 64.45 C.3 161 C4161 0
19250 H 76.75 74.41 65.18 H 161 C4161 0
19251 H 78.88 75.19 65.18 H 161 C4161 0
19252 H 77.86 76.18 64.55 H 161 C4161 0
19253 C1 79.08 75.32 63.13 C.3 161 C4161 0
19254 O2 79.29 76.37 62.52 O.3 161 C4161 0
19255 O3 79.56 74.14 62.64 O.3 161 C4161 0
19256 C 78.01 72.95 64.45 C.3 161 C4161 0
19257 H 77.35 72.27 64.43 H 161 C4161 0
19258 H 78.57 72.87 63.69 H 161 C4161 0
19259 H 78.52 72.87 65.24 H 161 C4161 0
19260 C 74.25 74.08 61.41 C.3 161 C4161 0
19261 C 75.22 73.07 61.5 C.3 161 C4161 0
19262 H 73.68 73.91 60.67 H 161 C4161 0
19263 H 75.81 73.13 60.76 H 161 C4161 0
19264 H 74.79 72.22 61.49 H 161 C4161 0
19265 C1 76.01 73.23 62.81 C.3 161 C4161 0
19266 O2 76.22 72.26 63.53 O.3 161 C4161 0
19267 O3 76.49 74.46 63.16 O.3 161 C4161 0
19268 C 74.94 75.44 61.24 C.3 161 C4161 0
19269 H 74.28 76.12 61.18 H 161 C4161 0
19270 H 75.5 75.61 61.98 H 161 C4161 0
19271 H 75.46 75.43 60.44 H 161 C4161 0
19272 C 71.18 74.66 64.38 C.3 161 C4161 0
19273 C 72.15 75.65 64.18 C.3 161 C4161 0
19274 H 70.61 74.91 65.1 H 161 C4161 0
19275 H 72.74 75.67 64.92 H 161 C4161 0
19276 H 71.73 76.5 64.09 H 161 C4161 0
19277 C1 72.95 75.34 62.9 C.3 161 C4161 0
19278 O2 73.15 76.23 62.07 O.3 161 C4161 0
19279 O3 73.42 74.09 62.68 O.3 161 C4161 0
19280 C 71.87 73.32 64.7 C.3 161 C4161 0
19281 H 71.21 72.65 64.84 H 161 C4161 0
19282 H 72.44 73.08 63.98 H 161 C4161 0
19283 H 72.39 73.42 65.49 H 161 C4161 0
19284 C 68.11 73.75 61.5 C.3 161 C4161 0
19285 C 69.08 72.79 61.8 C.3 161 C4161 0
19286 H 67.55 73.42 60.81 H 161 C4161 0
19287 H 69.67 72.69 61.06 H 161 C4161 0
19288 H 68.66 71.96 61.98 H 161 C4161 0
19289 C1 69.88 73.24 63.04 C.3 161 C4161 0
19290 O2 70.09 72.45 63.96 O.3 161 C4161 0
19291 O3 70.36 74.51 63.12 O.3 161 C4161 0
19292 C 68.8 75.04 61.02 C.3 161 C4161 0
19293 H 68.14 75.7 60.82 H 161 C4161 0
19294 H 69.37 75.37 61.71 H 161 C4161 0
19295 H 69.32 74.86 60.25 H 161 C4161 0
19296 C 65.04 74.97 64.26 C.3 161 C4161 0
19297 C 66.01 75.9 63.85 C.3 161 C4161 0
19298 H 64.48 75.38 64.91 H 161 C4161 0
19299 H 66.6 76.08 64.57 H 161 C4161 0
19300 H 65.59 76.7 63.58 H 161 C4161 0
19301 C1 66.81 75.32 62.67 C.3 161 C4161 0
19302 O2 67.02 76 61.67 O.3 161 C4161 0
19303 O3 67.29 74.04 62.73 O.3 161 C4161 0
19304 C 65.74 73.74 64.87 C.3 161 C4161 0
19305 H 65.08 73.12 65.15 H 161 C4161 0
19306 H 66.3 73.34 64.22 H 161 C4161 0
19307 H 66.25 74.01 65.62 H 161 C4161 0
19308 C 61.98 73.46 61.65 C.3 161 C4161 0
19309 C 62.95 72.58 62.16 C.3 161 C4161 0
19310 H 61.41 72.98 61.05 H 161 C4161 0
19311 H 63.54 72.32 61.46 H 161 C4161 0
19312 H 62.52 71.81 62.52 H 161 C4161 0
19313 C1 63.74 73.29 63.27 C.3 161 C4161 0
19314 O2 63.95 72.72 64.34 O.3 161 C4161 0
19315 O3 64.22 74.55 63.07 O.3 161 C4161 0
19316 C 62.67 74.61 60.9 C.3 161 C4161 0
19317 H 62.01 75.2 60.56 H 161 C4161 0
19318 H 63.23 75.08 61.5 H 161 C4161 0
19319 H 63.19 74.26 60.19 H 161 C4161 0
19320 C 58.91 75.25 64.07 C.3 161 C4161 0
19321 C 59.88 76.06 63.47 C.3 161 C4161 0
19322 H 58.34 75.79 64.62 H 161 C4161 0
19323 H 60.47 76.4 64.14 H 161 C4161 0
19324 H 59.46 76.79 63.03 H 161 C4161 0
19325 C1 60.68 75.24 62.45 C.3 161 C4161 0
19326 O2 60.88 75.69 61.32 O.3 161 C4161 0
19327 O3 61.15 74.01 62.79 O.3 161 C4161 0
19328 C 59.6 74.19 64.94 C.3 161 C4161 0
19329 H 58.94 73.64 65.35 H 161 C4161 0
19330 H 60.17 73.65 64.4 H 161 C4161 0
19331 H 60.12 74.61 65.62 H 161 C4161 0
19332 C 55.84 73.2 61.86 C.3 161 C4161 0
19333 C 56.81 72.46 62.55 C.3 161 C4161 0
19334 H 55.27 72.61 61.38 H 161 C4161 0
19335 H 57.4 72.05 61.93 H 161 C4161 0
19336 H 56.39 71.79 63.07 H 161 C4161 0
19337 C1 57.61 73.39 63.48 C.3 161 C4161 0
19338 O2 57.81 73.07 64.65 O.3 161 C4161 0
19339 O3 58.09 74.58 63 O.3 161 C4161 0
19340 C 56.53 74.16 60.88 C.3 161 C4161 0
19341 H 55.87 74.67 60.42 H 161 C4161 0
19342 H 57.1 74.75 61.36 H 161 C4161 0
19343 H 57.05 73.67 60.26 H 161 C4161 0
19344 C 52.77 75.49 63.83 C.3 161 C4161 0
19345 C 53.74 76.15 63.07 C.3 161 C4161 0
19346 H 52.21 76.13 64.25 H 161 C4161 0
19347 H 54.33 76.62 63.64 H 161 C4161 0
19348 H 53.32 76.76 62.48 H 161 C4161 0
19349 C1 54.54 75.11 62.25 C.3 161 C4161 0
19350 O2 54.75 75.3 61.05 O.3 161 C4161 0
19351 O3 55.02 73.99 62.85 O.3 161 C4161 0
19352 C 53.46 74.64 64.92 C.3 161 C4161 0
19353 H 52.81 74.19 65.43 H 161 C4161 0
19354 H 54.03 74 64.5 H 161 C4161 0
19355 H 53.98 75.2 65.48 H 161 C4161 0
19356 C 49.71 73 62.13 C.3 161 C4161 0
19357 C 50.68 72.42 62.96 C.3 161 C4161 0
19358 H 49.14 72.31 61.79 H 161 C4161 0
19359 H 51.27 71.89 62.44 H 161 C4161 0
19360 H 50.25 71.88 63.62 H 161 C4161 0
19361 C1 51.47 73.54 63.66 C.3 161 C4161 0
19362 O2 51.68 73.49 64.87 O.3 161 C4161 0
19363 O3 51.95 74.59 62.94 O.3 161 C4161 0
19364 C 50.4 73.72 60.96 C.3 161 C4161 0
19365 H 49.74 74.11 60.39 H 161 C4161 0
19366 H 50.96 74.4 61.3 H 161 C4161 0
19367 H 50.91 73.1 60.46 H 161 C4161 0
19368 C 46.64 75.66 63.55 C.3 161 C4161 0
19369 C 47.61 76.14 62.66 C.3 161 C4161 0
19370 H 46.07 76.38 63.81 H 161 C4161 0
19371 H 48.2 76.72 63.11 H 161 C4161 0
19372 H 47.19 76.6 61.95 H 161 C4161 0
19373 C1 48.41 74.95 62.09 C.3 161 C4161 0
19374 O2 48.61 74.87 60.88 O.3 161 C4161 0
19375 O3 48.88 73.98 62.92 O.3 161 C4161 0
19376 C 47.33 75.07 64.79 C.3 161 C4161 0
19377 H 46.67 74.75 65.39 H 161 C4161 0
19378 H 47.9 74.35 64.53 H 161 C4161 0
19379 H 47.85 75.74 65.21 H 161 C4161 0
19380 C 43.57 72.86 62.43 C.3 161 C4161 0
19381 C 44.54 72.48 63.37 C.3 161 C4161 0
19382 H 43.01 72.11 62.25 H 161 C4161 0
19383 H 45.13 71.85 62.98 H 161 C4161 0
19384 H 44.12 72.1 64.13 H 161 C4161 0
19385 C1 45.34 73.73 63.81 C.3 161 C4161 0
19386 O2 45.54 73.94 65 O.3 161 C4161 0
19387 O3 45.82 74.59 62.87 O.3 161 C4161 0
19388 C 44.26 73.31 61.13 C.3 161 C4161 0
19389 H 43.6 73.56 60.5 H 161 C4161 0
19390 H 44.83 74.05 61.31 H 161 C4161 0
19391 H 44.78 72.59 60.78 H 161 C4161 0
19392 C 40.5 75.77 63.23 C.3 161 C4161 0
19393 C 41.47 76.03 62.26 C.3 161 C4161 0
19394 H 39.94 76.52 63.33 H 161 C4161 0
19395 H 42.06 76.71 62.57 H 161 C4161 0
19396 H 41.05 76.33 61.46 H 161 C4161 0
19397 C1 42.27 74.75 61.96 C.3 161 C4161 0
19398 O2 42.48 74.41 60.8 O.3 161 C4161 0
19399 O3 42.75 73.99 62.99 O.3 161 C4161 0
19400 C 41.19 75.46 64.57 C.3 161 C4161 0
19401 H 40.54 75.28 65.23 H 161 C4161 0
19402 H 41.76 74.71 64.47 H 161 C4161 0
19403 H 41.71 76.21 64.84 H 161 C4161 0
19404 C 37.44 72.79 62.76 C.3 161 C4161 0
19405 C 38.41 72.63 63.76 C.3 161 C4161 0
19406 H 36.87 72.02 62.75 H 161 C4161 0
19407 H 39 71.92 63.52 H 161 C4161 0
19408 H 37.98 72.42 64.58 H 161 C4161 0
19409 C1 39.2 73.94 63.91 C.3 161 C4161 0
19410 O2 39.41 74.41 65.03 O.3 161 C4161 0
19411 O3 39.68 74.58 62.81 O.3 161 C4161 0
19412 C 38.13 72.94 61.39 C.3 161 C4161 0
19413 H 37.47 73.05 60.72 H 161 C4161 0
19414 H 38.69 73.7 61.41 H 161 C4161 0
19415 H 38.64 72.16 61.21 H 161 C4161 0
19416 C 34.37 75.8 62.9 C.3 161 C4161 0
19417 C 35.34 75.85 61.89 C.3 161 C4161 0
19418 H 33.8 76.56 62.83 H 161 C4161 0
19419 H 35.93 76.57 62.05 H 161 C4161 0
19420 H 34.91 75.96 61.05 H 161 C4161 0
19421 C1 36.14 74.53 61.88 C.3 161 C4161 0
19422 O2 36.34 73.94 60.82 O.3 161 C4161 0
19423 O3 36.61 74.02 63.05 O.3 161 C4161 0
19424 C 35.06 75.8 64.27 C.3 161 C4161 0
19425 H 34.4 75.77 64.96 H 161 C4161 0
19426 H 35.62 75.04 64.34 H 161 C4161 0
19427 H 35.58 76.59 64.37 H 161 C4161 0
19428 C 31.3 72.79 63.1 C.3 161 C4161 0
19429 C 32.27 72.86 64.1 C.3 161 C4161 0
19430 H 30.73 72.04 63.25 H 161 C4161 0
19431 H 32.86 72.11 64.02 H 161 C4161 0
19432 H 31.85 72.83 64.95 H 161 C4161 0
19433 C1 33.07 74.17 63.96 C.3 161 C4161 0
19434 O2 33.27 74.87 64.95 O.3 161 C4161 0
19435 O3 33.54 74.54 62.75 O.3 161 C4161 0
19436 C 31.99 72.64 61.73 C.3 161 C4161 0
19437 H 31.33 72.59 61.04 H 161 C4161 0
19438 H 32.56 73.39 61.57 H 161 C4161 0
19439 H 32.51 71.84 61.72 H 161 C4161 0
19440 C 28.23 75.76 62.57 C.3 161 C4161 0
19441 C 29.2 75.59 61.57 C.3 161 C4161 0
19442 H 27.67 76.49 62.33 H 161 C4161 0
19443 H 29.79 76.33 61.57 H 161 C4161 0
19444 H 28.78 75.51 60.73 H 161 C4161 0
19445 C1 30 74.3 61.86 C.3 161 C4161 0
19446 O2 30.21 73.49 60.95 O.3 161 C4161 0
19447 O3 30.48 74.06 63.11 O.3 161 C4161 0
19448 C 28.92 76.06 63.91 C.3 161 C4161 0
19449 H 28.27 76.18 64.58 H 161 C4161 0
19450 H 29.49 75.34 64.14 H 161 C4161 0
19451 H 29.44 76.86 63.83 H 161 C4161 0
19452 C 25.17 72.87 63.42 C.3 161 C4161 0
19453 C 26.14 73.15 64.39 C.3 161 C4161 0
19454 H 24.6 72.17 63.74 H 161 C4161 0
19455 H 26.73 72.41 64.47 H 161 C4161 0
19456 H 25.71 73.32 65.22 H 161 C4161 0
19457 C1 26.93 74.4 63.96 C.3 161 C4161 0
19458 O2 27.14 75.3 64.77 O.3 161 C4161 0
19459 O3 27.41 74.5 62.7 O.3 161 C4161 0
19460 C 25.86 72.42 62.12 C.3 161 C4161 0
19461 H 25.2 72.23 61.46 H 161 C4161 0
19462 H 26.42 73.11 61.81 H 161 C4161 0
19463 H 26.37 71.64 62.29 H 161 C4161 0
19464 C 22.1 75.65 62.25 C.3 161 C4161 0
19465 C 23.07 75.26 61.32 C.3 161 C4161 0
19466 H 21.53 76.31 61.86 H 161 C4161 0
19467 H 23.66 75.98 61.15 H 161 C4161 0
19468 H 22.64 75 60.51 H 161 C4161 0
19469 C1 23.87 74.07 61.88 C.3 161 C4161 0
19470 O2 24.07 73.08 61.18 O.3 161 C4161 0
19471 O3 24.34 74.1 63.15 O.3 161 C4161 0
19472 C 22.79 76.24 63.5 C.3 161 C4161 0
19473 H 22.13 76.51 64.13 H 161 C4161 0
19474 H 23.35 75.58 63.88 H 161 C4161 0
19475 H 23.31 77 63.24 H 161 C4161 0
19476 C 19.03 73.01 63.72 C.3 161 C4161 0
19477 C 20 73.51 64.6 C.3 161 C4161 0
19478 H 18.46 72.41 64.18 H 161 C4161 0
19479 H 20.59 72.8 64.85 H 161 C4161 0
19480 H 19.58 73.85 65.38 H 161 C4161 0
19481 C1 20.8 74.63 63.91 C.3 161 C4161 0
19482 O2 21 75.69 64.51 O.3 161 C4161 0
19483 O3 21.27 74.45 62.65 O.3 161 C4161 0
19484 C 19.72 72.29 62.55 C.3 161 C4161 0
19485 H 19.06 71.96 61.95 H 161 C4161 0
19486 H 20.29 72.9 62.09 H 161 C4161 0
19487 H 20.24 71.57 62.89 H 161 C4161 0
19488 C 15.96 75.47 61.97 C.3 161 C4161 0
19489 C 16.93 74.89 61.15 C.3 161 C4161 0
19490 H 15.4 76.03 61.45 H 161 C4161 0
19491 H 17.52 75.56 60.83 H 161 C4161 0
19492 H 16.51 74.46 60.41 H 161 C4161 0
19493 C1 17.73 73.85 61.96 C.3 161 C4161 0
19494 O2 17.94 72.73 61.49 O.3 161 C4161 0
19495 O3 18.21 74.16 63.19 O.3 161 C4161 0
19496 C 16.65 76.32 63.05 C.3 161 C4161 0
19497 H 16 76.72 63.61 H 161 C4161 0
19498 H 17.22 75.77 63.58 H 161 C4161 0
19499 H 17.17 77 62.64 H 161 C4161 0
19500 C 12.89 73.22 63.98 C.3 161 C4161 0
19501 C 13.87 73.9 64.74 C.3 161 C4161 0
19502 H 12.33 72.73 64.56 H 161 C4161 0
19503 H 14.45 73.27 65.13 H 161 C4161 0
19504 H 13.44 74.4 65.42 H 161 C4161 0
19505 C1 14.66 74.84 63.82 C.3 161 C4161 0
19506 O2 14.87 76.01 64.16 O.3 161 C4161 0
19507 O3 15.14 74.39 62.63 O.3 161 C4161 0
19508 C 13.59 72.26 63 C.3 161 C4161 0
19509 H 12.93 71.8 62.49 H 161 C4161 0
19510 H 14.15 72.75 62.42 H 161 C4161 0
19511 H 14.1 71.63 63.49 H 161 C4161 0
19512 C 9.83 75.24 61.73 C.3 161 C4161 0
19513 C 10.8 74.48 61.06 C.3 161 C4161 0
19514 H 9.26 75.66 61.1 H 161 C4161 0
19515 H 11.39 75.07 60.6 H 161 C4161 0
19516 H 10.37 73.9 60.44 H 161 C4161 0
19517 C1 11.59 73.65 62.08 C.3 161 C4161 0
19518 O2 11.8 72.45 61.86 O.3 161 C4161 0
19519 O3 12.07 74.23 63.21 O.3 161 C4161 0
19520 C 10.52 76.3 62.6 C.3 161 C4161 0
19521 H 9.86 76.81 63.06 H 161 C4161 0
19522 H 11.08 75.88 63.24 H 161 C4161 0
19523 H 11.04 76.88 62.05 H 161 C4161 0
19524 C 6.76 73.49 64.19 C.3 161 C4161 0
19525 C 7.73 74.31 64.78 C.3 161 C4161 0
19526 H 6.19 73.13 64.87 H 161 C4161 0
19527 H 8.32 73.78 65.3 H 161 C4161 0
19528 H 7.31 74.95 65.33 H 161 C4161 0
19529 C1 8.53 75.03 63.67 C.3 161 C4161 0
19530 O2 8.73 76.24 63.75 O.3 161 C4161 0
19531 O3 9 74.33 62.61 O.3 161 C4161 0
19532 C 7.45 72.33 63.44 C.3 161 C4161 0
19533 H 6.79 71.77 63.05 H 161 C4161 0
19534 H 8.02 72.68 62.77 H 161 C4161 0
19535 H 7.97 71.82 64.06 H 161 C4161 0
19536 H 3.17 74.52 62.22 H 162 C4162 0
19537 C 3.69 74.95 61.55 C.3 162 C4162 0
19538 C 4.66 74.07 61.06 C.3 162 C4162 0
19539 H 3.13 75.23 60.84 H 162 C4162 0
19540 H 5.25 74.54 60.49 H 162 C4162 0
19541 H 4.24 73.37 60.58 H 162 C4162 0
19542 C1 5.46 73.48 62.24 C.3 162 C4162 0
19543 O2 5.67 72.27 62.3 O.3 162 C4162 0
19544 O3 5.94 74.29 63.22 O.3 162 C4162 0
19545 C 4.38 76.19 62.17 C.3 162 C4162 0
19546 H 3.72 76.78 62.5 H 162 C4162 0
19547 H 4.95 75.91 62.88 H 162 C4162 0
19548 H 4.9 76.62 61.5 H 162 C4162 0
19549 C 92.65 75.04 73.03 C.3 163 C4163 0
19550 C 93.62 74.2 72.48 C.3 163 C4163 0
19551 H 92.09 75.37 72.34 H 163 C4163 0
19552 H 94.21 74.71 71.94 H 163 C4163 0
19553 H 93.2 73.53 71.95 H 163 C4163 0
19554 C1 94.42 73.52 73.61 C.3 163 C4163 0
19555 O2 94.63 72.31 73.58 O.3 163 C4163 0
19556 O3 94.9 74.26 74.64 O.3 163 C4163 0
19557 H5 95.42 73.71 75.22 H 163 C4163 0
19558 C 93.34 76.22 73.74 C.3 163 C4163 0
19559 H 92.68 76.8 74.11 H 163 C4163 0
19560 H 93.91 75.9 74.42 H 163 C4163 0
19561 H 93.86 76.71 73.1 H 163 C4163 0
19562 C 89.58 73.68 75.72 C.3 164 C4164 0
19563 C 90.55 74.58 76.18 C.3 164 C4164 0
19564 H 89.02 73.43 76.44 H 164 C4164 0
19565 H 91.15 74.13 76.78 H 164 C4164 0
19566 H 90.13 75.3 76.63 H 164 C4164 0
19567 C1 91.35 75.12 74.98 C.3 164 C4164 0
19568 O2 91.56 76.33 74.88 O.3 164 C4164 0
19569 O3 91.83 74.27 74.04 O.3 164 C4164 0
19570 C 90.28 72.42 75.16 C.3 164 C4164 0
19571 H 89.62 71.81 74.85 H 164 C4164 0
19572 H 90.84 72.67 74.44 H 164 C4164 0
19573 H 90.79 72.01 75.84 H 164 C4164 0
19574 C 86.52 74.74 72.9 C.3 164 C4164 0
19575 C 87.49 73.79 72.54 C.3 164 C4164 0
19576 H 85.95 74.9 72.15 H 164 C4164 0
19577 H 88.08 74.17 71.9 H 164 C4164 0
19578 H 87.06 73.03 72.17 H 164 C4164 0
19579 C1 88.28 73.38 73.8 C.3 164 C4164 0
19580 O2 88.49 72.19 74.03 O.3 164 C4164 0
19581 O3 88.76 74.33 74.64 O.3 164 C4164 0
19582 C 87.21 76.05 73.32 C.3 164 C4164 0
19583 H 86.55 76.69 73.56 H 164 C4164 0
19584 H 87.77 75.88 74.07 H 164 C4164 0
19585 H 87.73 76.38 72.6 H 164 C4164 0
19586 C 83.45 74 75.82 C.3 164 C4164 0
19587 C 84.42 74.97 76.07 C.3 164 C4164 0
19588 H 82.88 73.91 76.58 H 164 C4164 0
19589 H 85.01 74.67 76.75 H 164 C4164 0
19590 H 84 75.78 76.36 H 164 C4164 0
19591 C1 85.22 75.25 74.78 C.3 164 C4164 0
19592 O2 85.42 76.4 74.42 O.3 164 C4164 0
19593 O3 85.69 74.21 74.05 O.3 164 C4164 0
19594 C 84.14 72.65 75.55 C.3 164 C4164 0
19595 H 83.48 71.98 75.38 H 164 C4164 0
19596 H 84.71 72.73 74.79 H 164 C4164 0
19597 H 84.66 72.4 76.3 H 164 C4164 0
19598 C 80.38 74.41 72.83 C.3 164 C4164 0
19599 C 81.35 73.41 72.7 C.3 164 C4164 0
19600 H 79.82 74.41 72.07 H 164 C4164 0
19601 H 81.94 73.64 71.99 H 164 C4164 0
19602 H 80.93 72.58 72.5 H 164 C4164 0
19603 C1 82.15 73.28 74.01 C.3 164 C4164 0
19604 O2 82.36 72.17 74.5 O.3 164 C4164 0
19605 O3 82.63 74.4 74.62 O.3 164 C4164 0
19606 C 81.07 75.78 72.96 C.3 164 C4164 0
19607 H 80.41 76.46 73.06 H 164 C4164 0
19608 H 81.64 75.78 73.72 H 164 C4164 0
19609 H 81.59 75.95 72.18 H 164 C4164 0
19610 C 77.31 74.33 75.85 C.3 164 C4164 0
19611 C 78.28 75.34 75.88 C.3 164 C4164 0
19612 H 76.75 74.41 76.61 H 164 C4164 0
19613 H 78.88 75.19 76.61 H 164 C4164 0
19614 H 77.86 76.18 75.98 H 164 C4164 0
19615 C1 79.08 75.32 74.56 C.3 164 C4164 0
19616 O2 79.29 76.37 73.95 O.3 164 C4164 0
19617 O3 79.56 74.14 74.07 O.3 164 C4164 0
19618 C 78.01 72.95 75.88 C.3 164 C4164 0
19619 H 77.35 72.27 75.86 H 164 C4164 0
19620 H 78.57 72.87 75.12 H 164 C4164 0
19621 H 78.52 72.87 76.67 H 164 C4164 0
19622 C 74.25 74.08 72.84 C.3 164 C4164 0
19623 C 75.22 73.07 72.93 C.3 164 C4164 0
19624 H 73.68 73.91 72.1 H 164 C4164 0
19625 H 75.81 73.13 72.19 H 164 C4164 0
19626 H 74.79 72.22 72.92 H 164 C4164 0
19627 C1 76.01 73.23 74.24 C.3 164 C4164 0
19628 O2 76.22 72.26 74.96 O.3 164 C4164 0
19629 O3 76.49 74.46 74.59 O.3 164 C4164 0
19630 C 74.94 75.44 72.67 C.3 164 C4164 0
19631 H 74.28 76.12 72.61 H 164 C4164 0
19632 H 75.5 75.61 73.41 H 164 C4164 0
19633 H 75.46 75.43 71.87 H 164 C4164 0
19634 C 71.18 74.66 75.81 C.3 164 C4164 0
19635 C 72.15 75.65 75.61 C.3 164 C4164 0
19636 H 70.61 74.91 76.53 H 164 C4164 0
19637 H 72.74 75.67 76.35 H 164 C4164 0
19638 H 71.73 76.5 75.52 H 164 C4164 0
19639 C1 72.95 75.34 74.33 C.3 164 C4164 0
19640 O2 73.15 76.23 73.5 O.3 164 C4164 0
19641 O3 73.42 74.09 74.11 O.3 164 C4164 0
19642 C 71.87 73.32 76.13 C.3 164 C4164 0
19643 H 71.21 72.65 76.27 H 164 C4164 0
19644 H 72.44 73.08 75.41 H 164 C4164 0
19645 H 72.39 73.42 76.92 H 164 C4164 0
19646 C 68.11 73.75 72.93 C.3 164 C4164 0
19647 C 69.08 72.79 73.23 C.3 164 C4164 0
19648 H 67.55 73.42 72.24 H 164 C4164 0
19649 H 69.67 72.69 72.49 H 164 C4164 0
19650 H 68.66 71.96 73.41 H 164 C4164 0
19651 C1 69.88 73.24 74.47 C.3 164 C4164 0
19652 O2 70.09 72.45 75.39 O.3 164 C4164 0
19653 O3 70.36 74.51 74.55 O.3 164 C4164 0
19654 C 68.8 75.04 72.45 C.3 164 C4164 0
19655 H 68.14 75.7 72.25 H 164 C4164 0
19656 H 69.37 75.37 73.14 H 164 C4164 0
19657 H 69.32 74.86 71.68 H 164 C4164 0
19658 C 65.04 74.97 75.69 C.3 164 C4164 0
19659 C 66.01 75.9 75.28 C.3 164 C4164 0
19660 H 64.48 75.38 76.34 H 164 C4164 0
19661 H 66.6 76.08 76 H 164 C4164 0
19662 H 65.59 76.7 75.01 H 164 C4164 0
19663 C1 66.81 75.32 74.1 C.3 164 C4164 0
19664 O2 67.02 76 73.1 O.3 164 C4164 0
19665 O3 67.29 74.04 74.16 O.3 164 C4164 0
19666 C 65.74 73.74 76.3 C.3 164 C4164 0
19667 H 65.08 73.12 76.58 H 164 C4164 0
19668 H 66.3 73.34 75.65 H 164 C4164 0
19669 H 66.25 74.01 77.05 H 164 C4164 0
19670 C 61.98 73.46 73.08 C.3 164 C4164 0
19671 C 62.95 72.58 73.59 C.3 164 C4164 0
19672 H 61.41 72.98 72.48 H 164 C4164 0
19673 H 63.54 72.32 72.89 H 164 C4164 0
19674 H 62.52 71.81 73.95 H 164 C4164 0
19675 C1 63.74 73.29 74.7 C.3 164 C4164 0
19676 O2 63.95 72.72 75.77 O.3 164 C4164 0
19677 O3 64.22 74.55 74.5 O.3 164 C4164 0
19678 C 62.67 74.61 72.33 C.3 164 C4164 0
19679 H 62.01 75.2 71.99 H 164 C4164 0
19680 H 63.23 75.08 72.93 H 164 C4164 0
19681 H 63.19 74.26 71.62 H 164 C4164 0
19682 C 58.91 75.25 75.5 C.3 164 C4164 0
19683 C 59.88 76.06 74.9 C.3 164 C4164 0
19684 H 58.34 75.79 76.05 H 164 C4164 0
19685 H 60.47 76.4 75.57 H 164 C4164 0
19686 H 59.46 76.79 74.46 H 164 C4164 0
19687 C1 60.68 75.24 73.88 C.3 164 C4164 0
19688 O2 60.88 75.69 72.75 O.3 164 C4164 0
19689 O3 61.15 74.01 74.22 O.3 164 C4164 0
19690 C 59.6 74.19 76.37 C.3 164 C4164 0
19691 H 58.94 73.64 76.78 H 164 C4164 0
19692 H 60.17 73.65 75.83 H 164 C4164 0
19693 H 60.12 74.61 77.05 H 164 C4164 0
19694 C 55.84 73.2 73.29 C.3 164 C4164 0
19695 C 56.81 72.46 73.98 C.3 164 C4164 0
19696 H 55.27 72.61 72.81 H 164 C4164 0
19697 H 57.4 72.05 73.36 H 164 C4164 0
19698 H 56.39 71.79 74.5 H 164 C4164 0
19699 C1 57.61 73.39 74.91 C.3 164 C4164 0
19700 O2 57.81 73.07 76.08 O.3 164 C4164 0
19701 O3 58.09 74.58 74.43 O.3 164 C4164 0
19702 C 56.53 74.16 72.31 C.3 164 C4164 0
19703 H 55.87 74.67 71.85 H 164 C4164 0
19704 H 57.1 74.75 72.79 H 164 C4164 0
19705 H 57.05 73.67 71.69 H 164 C4164 0
19706 C 52.77 75.49 75.26 C.3 164 C4164 0
19707 C 53.74 76.15 74.5 C.3 164 C4164 0
19708 H 52.21 76.13 75.68 H 164 C4164 0
19709 H 54.33 76.62 75.07 H 164 C4164 0
19710 H 53.32 76.76 73.91 H 164 C4164 0
19711 C1 54.54 75.11 73.68 C.3 164 C4164 0
19712 O2 54.75 75.3 72.48 O.3 164 C4164 0
19713 O3 55.02 73.99 74.28 O.3 164 C4164 0
19714 C 53.46 74.64 76.35 C.3 164 C4164 0
19715 H 52.81 74.19 76.86 H 164 C4164 0
19716 H 54.03 74 75.93 H 164 C4164 0
19717 H 53.98 75.2 76.91 H 164 C4164 0
19718 C 49.71 73 73.56 C.3 164 C4164 0
19719 C 50.68 72.42 74.39 C.3 164 C4164 0
19720 H 49.14 72.31 73.22 H 164 C4164 0
19721 H 51.27 71.89 73.87 H 164 C4164 0
19722 H 50.25 71.88 75.05 H 164 C4164 0
19723 C1 51.47 73.54 75.09 C.3 164 C4164 0
19724 O2 51.68 73.49 76.3 O.3 164 C4164 0
19725 O3 51.95 74.59 74.37 O.3 164 C4164 0
19726 C 50.4 73.72 72.39 C.3 164 C4164 0
19727 H 49.74 74.11 71.82 H 164 C4164 0
19728 H 50.96 74.4 72.73 H 164 C4164 0
19729 H 50.91 73.1 71.89 H 164 C4164 0
19730 C 46.64 75.66 74.98 C.3 164 C4164 0
19731 C 47.61 76.14 74.09 C.3 164 C4164 0
19732 H 46.07 76.38 75.24 H 164 C4164 0
19733 H 48.2 76.72 74.54 H 164 C4164 0
19734 H 47.19 76.6 73.38 H 164 C4164 0
19735 C1 48.41 74.95 73.52 C.3 164 C4164 0
19736 O2 48.61 74.87 72.31 O.3 164 C4164 0
19737 O3 48.88 73.98 74.35 O.3 164 C4164 0
19738 C 47.33 75.07 76.22 C.3 164 C4164 0
19739 H 46.67 74.75 76.82 H 164 C4164 0
19740 H 47.9 74.35 75.96 H 164 C4164 0
19741 H 47.85 75.74 76.64 H 164 C4164 0
19742 C 43.57 72.86 73.86 C.3 164 C4164 0
19743 C 44.54 72.48 74.8 C.3 164 C4164 0
19744 H 43.01 72.11 73.68 H 164 C4164 0
19745 H 45.13 71.85 74.41 H 164 C4164 0
19746 H 44.12 72.1 75.56 H 164 C4164 0
19747 C1 45.34 73.73 75.24 C.3 164 C4164 0
19748 O2 45.54 73.94 76.43 O.3 164 C4164 0
19749 O3 45.82 74.59 74.3 O.3 164 C4164 0
19750 C 44.26 73.31 72.56 C.3 164 C4164 0
19751 H 43.6 73.56 71.93 H 164 C4164 0
19752 H 44.83 74.05 72.74 H 164 C4164 0
19753 H 44.78 72.59 72.21 H 164 C4164 0
19754 C 40.5 75.77 74.66 C.3 164 C4164 0
19755 C 41.47 76.03 73.69 C.3 164 C4164 0
19756 H 39.94 76.52 74.76 H 164 C4164 0
19757 H 42.06 76.71 74 H 164 C4164 0
19758 H 41.05 76.33 72.89 H 164 C4164 0
19759 C1 42.27 74.75 73.39 C.3 164 C4164 0
19760 O2 42.48 74.41 72.23 O.3 164 C4164 0
19761 O3 42.75 73.99 74.42 O.3 164 C4164 0
19762 C 41.19 75.46 76 C.3 164 C4164 0
19763 H 40.54 75.28 76.66 H 164 C4164 0
19764 H 41.76 74.71 75.9 H 164 C4164 0
19765 H 41.71 76.21 76.27 H 164 C4164 0
19766 C 37.44 72.79 74.19 C.3 164 C4164 0
19767 C 38.41 72.63 75.19 C.3 164 C4164 0
19768 H 36.87 72.02 74.18 H 164 C4164 0
19769 H 39 71.92 74.95 H 164 C4164 0
19770 H 37.98 72.42 76.01 H 164 C4164 0
19771 C1 39.2 73.94 75.34 C.3 164 C4164 0
19772 O2 39.41 74.41 76.46 O.3 164 C4164 0
19773 O3 39.68 74.58 74.24 O.3 164 C4164 0
19774 C 38.13 72.94 72.82 C.3 164 C4164 0
19775 H 37.47 73.05 72.15 H 164 C4164 0
19776 H 38.69 73.7 72.84 H 164 C4164 0
19777 H 38.64 72.16 72.64 H 164 C4164 0
19778 C 34.37 75.8 74.33 C.3 164 C4164 0
19779 C 35.34 75.85 73.32 C.3 164 C4164 0
19780 H 33.8 76.56 74.26 H 164 C4164 0
19781 H 35.93 76.57 73.48 H 164 C4164 0
19782 H 34.91 75.96 72.48 H 164 C4164 0
19783 C1 36.14 74.53 73.31 C.3 164 C4164 0
19784 O2 36.34 73.94 72.25 O.3 164 C4164 0
19785 O3 36.61 74.02 74.48 O.3 164 C4164 0
19786 C 35.06 75.8 75.7 C.3 164 C4164 0
19787 H 34.4 75.77 76.39 H 164 C4164 0
19788 H 35.62 75.04 75.77 H 164 C4164 0
19789 H 35.58 76.59 75.8 H 164 C4164 0
19790 C 31.3 72.79 74.53 C.3 164 C4164 0
19791 C 32.27 72.86 75.53 C.3 164 C4164 0
19792 H 30.73 72.04 74.68 H 164 C4164 0
19793 H 32.86 72.11 75.45 H 164 C4164 0
19794 H 31.85 72.83 76.38 H 164 C4164 0
19795 C1 33.07 74.17 75.39 C.3 164 C4164 0
19796 O2 33.27 74.87 76.38 O.3 164 C4164 0
19797 O3 33.54 74.54 74.18 O.3 164 C4164 0
19798 C 31.99 72.64 73.16 C.3 164 C4164 0
19799 H 31.33 72.59 72.47 H 164 C4164 0
19800 H 32.56 73.39 73 H 164 C4164 0
19801 H 32.51 71.84 73.15 H 164 C4164 0
19802 C 28.23 75.76 74 C.3 164 C4164 0
19803 C 29.2 75.59 73 C.3 164 C4164 0
19804 H 27.67 76.49 73.76 H 164 C4164 0
19805 H 29.79 76.33 73 H 164 C4164 0
19806 H 28.78 75.51 72.16 H 164 C4164 0
19807 C1 30 74.3 73.29 C.3 164 C4164 0
19808 O2 30.21 73.49 72.38 O.3 164 C4164 0
19809 O3 30.48 74.06 74.54 O.3 164 C4164 0
19810 C 28.92 76.06 75.34 C.3 164 C4164 0
19811 H 28.27 76.18 76.01 H 164 C4164 0
19812 H 29.49 75.34 75.57 H 164 C4164 0
19813 H 29.44 76.86 75.26 H 164 C4164 0
19814 C 25.17 72.87 74.85 C.3 164 C4164 0
19815 C 26.14 73.15 75.82 C.3 164 C4164 0
19816 H 24.6 72.17 75.17 H 164 C4164 0
19817 H 26.73 72.41 75.9 H 164 C4164 0
19818 H 25.71 73.32 76.65 H 164 C4164 0
19819 C1 26.93 74.4 75.39 C.3 164 C4164 0
19820 O2 27.14 75.3 76.2 O.3 164 C4164 0
19821 O3 27.41 74.5 74.13 O.3 164 C4164 0
19822 C 25.86 72.42 73.55 C.3 164 C4164 0
19823 H 25.2 72.23 72.89 H 164 C4164 0
19824 H 26.42 73.11 73.24 H 164 C4164 0
19825 H 26.37 71.64 73.72 H 164 C4164 0
19826 C 22.1 75.65 73.68 C.3 164 C4164 0
19827 C 23.07 75.26 72.75 C.3 164 C4164 0
19828 H 21.53 76.31 73.29 H 164 C4164 0
19829 H 23.66 75.98 72.58 H 164 C4164 0
19830 H 22.64 75 71.94 H 164 C4164 0
19831 C1 23.87 74.07 73.31 C.3 164 C4164 0
19832 O2 24.07 73.08 72.61 O.3 164 C4164 0
19833 O3 24.34 74.1 74.58 O.3 164 C4164 0
19834 C 22.79 76.24 74.93 C.3 164 C4164 0
19835 H 22.13 76.51 75.56 H 164 C4164 0
19836 H 23.35 75.58 75.31 H 164 C4164 0
19837 H 23.31 77 74.67 H 164 C4164 0
19838 C 19.03 73.01 75.15 C.3 164 C4164 0
19839 C 20 73.51 76.03 C.3 164 C4164 0
19840 H 18.46 72.41 75.61 H 164 C4164 0
19841 H 20.59 72.8 76.28 H 164 C4164 0
19842 H 19.58 73.85 76.81 H 164 C4164 0
19843 C1 20.8 74.63 75.34 C.3 164 C4164 0
19844 O2 21 75.69 75.94 O.3 164 C4164 0
19845 O3 21.27 74.45 74.08 O.3 164 C4164 0
19846 C 19.72 72.29 73.98 C.3 164 C4164 0
19847 H 19.06 71.96 73.38 H 164 C4164 0
19848 H 20.29 72.9 73.52 H 164 C4164 0
19849 H 20.24 71.57 74.32 H 164 C4164 0
19850 C 15.96 75.47 73.4 C.3 164 C4164 0
19851 C 16.93 74.89 72.58 C.3 164 C4164 0
19852 H 15.4 76.03 72.88 H 164 C4164 0
19853 H 17.52 75.56 72.26 H 164 C4164 0
19854 H 16.51 74.46 71.84 H 164 C4164 0
19855 C1 17.73 73.85 73.39 C.3 164 C4164 0
19856 O2 17.94 72.73 72.92 O.3 164 C4164 0
19857 O3 18.21 74.16 74.62 O.3 164 C4164 0
19858 C 16.65 76.32 74.48 C.3 164 C4164 0
19859 H 16 76.72 75.04 H 164 C4164 0
19860 H 17.22 75.77 75.01 H 164 C4164 0
19861 H 17.17 77 74.07 H 164 C4164 0
19862 C 12.89 73.22 75.41 C.3 164 C4164 0
19863 C 13.87 73.9 76.17 C.3 164 C4164 0
19864 H 12.33 72.73 75.99 H 164 C4164 0
19865 H 14.45 73.27 76.56 H 164 C4164 0
19866 H 13.44 74.4 76.85 H 164 C4164 0
19867 C1 14.66 74.84 75.25 C.3 164 C4164 0
19868 O2 14.87 76.01 75.59 O.3 164 C4164 0
19869 O3 15.14 74.39 74.06 O.3 164 C4164 0
19870 C 13.59 72.26 74.43 C.3 164 C4164 0
19871 H 12.93 71.8 73.92 H 164 C4164 0
19872 H 14.15 72.75 73.85 H 164 C4164 0
19873 H 14.1 71.63 74.92 H 164 C4164 0
19874 C 9.83 75.24 73.16 C.3 164 C4164 0
19875 C 10.8 74.48 72.49 C.3 164 C4164 0
19876 H 9.26 75.66 72.53 H 164 C4164 0
19877 H 11.39 75.07 72.03 H 164 C4164 0
19878 H 10.37 73.9 71.87 H 164 C4164 0
19879 C1 11.59 73.65 73.51 C.3 164 C4164 0
19880 O2 11.8 72.45 73.29 O.3 164 C4164 0
19881 O3 12.07 74.23 74.64 O.3 164 C4164 0
19882 C 10.52 76.3 74.03 C.3 164 C4164 0
19883 H 9.86 76.81 74.49 H 164 C4164 0
19884 H 11.08 75.88 74.67 H 164 C4164 0
19885 H 11.04 76.88 73.48 H 164 C4164 0
19886 C 6.76 73.49 75.62 C.3 164 C4164 0
19887 C 7.73 74.31 76.21 C.3 164 C4164 0
19888 H 6.19 73.13 76.3 H 164 C4164 0
19889 H 8.32 73.78 76.73 H 164 C4164 0
19890 H 7.31 74.95 76.76 H 164 C4164 0
19891 C1 8.53 75.03 75.1 C.3 164 C4164 0
19892 O2 8.73 76.24 75.18 O.3 164 C4164 0
19893 O3 9 74.33 74.04 O.3 164 C4164 0
19894 C 7.45 72.33 74.87 C.3 164 C4164 0
19895 H 6.79 71.77 74.48 H 164 C4164 0
19896 H 8.02 72.68 74.2 H 164 C4164 0
19897 H 7.97 71.82 75.49 H 164 C4164 0
19898 H 3.17 74.52 73.65 H 165 C4165 0
19899 C 3.69 74.95 72.98 C.3 165 C4165 0
19900 C 4.66 74.07 72.49 C.3 165 C4165 0
19901 H 3.13 75.23 72.27 H 165 C4165 0
19902 H 5.25 74.54 71.92 H 165 C4165 0
19903 H 4.24 73.37 72.01 H 165 C4165 0
19904 C1 5.46 73.48 73.67 C.3 165 C4165 0
19905 O2 5.67 72.27 73.73 O.3 165 C4165 0
19906 O3 5.94 74.29 74.65 O.3 165 C4165 0
19907 C 4.38 76.19 73.6 C.3 165 C4165 0
19908 H 3.72 76.78 73.93 H 165 C4165 0
19909 H 4.95 75.91 74.31 H 165 C4165 0
19910 H 4.9 76.62 72.93 H 165 C4165 0
19911 C 92.65 75.04 84.46 C.3 166 C4166 0
19912 C 93.62 74.2 83.91 C.3 166 C4166 0
19913 H 92.09 75.37 83.77 H 166 C4166 0
19914 H 94.21 74.71 83.37 H 166 C4166 0
19915 H 93.2 73.53 83.38 H 166 C4166 0
19916 C1 94.42 73.52 85.04 C.3 166 C4166 0
19917 O2 94.63 72.31 85.01 O.3 166 C4166 0
19918 O3 94.9 74.26 86.07 O.3 166 C4166 0
19919 H5 95.42 73.71 86.65 H 166 C4166 0
19920 C 93.34 76.22 85.17 C.3 166 C4166 0
19921 H 92.68 76.8 85.54 H 166 C4166 0
19922 H 93.91 75.9 85.85 H 166 C4166 0
19923 H 93.86 76.71 84.53 H 166 C4166 0
19924 C 89.58 73.68 87.15 C.3 167 C4167 0
19925 C 90.55 74.58 87.61 C.3 167 C4167 0
19926 H 89.02 73.43 87.87 H 167 C4167 0
19927 H 91.15 74.13 88.21 H 167 C4167 0
19928 H 90.13 75.3 88.06 H 167 C4167 0
19929 C1 91.35 75.12 86.41 C.3 167 C4167 0
19930 O2 91.56 76.33 86.31 O.3 167 C4167 0
19931 O3 91.83 74.27 85.47 O.3 167 C4167 0
19932 C 90.28 72.42 86.59 C.3 167 C4167 0
19933 H 89.62 71.81 86.28 H 167 C4167 0
19934 H 90.84 72.67 85.87 H 167 C4167 0
19935 H 90.79 72.01 87.27 H 167 C4167 0
19936 C 86.52 74.74 84.33 C.3 167 C4167 0
19937 C 87.49 73.79 83.97 C.3 167 C4167 0
19938 H 85.95 74.9 83.58 H 167 C4167 0
19939 H 88.08 74.17 83.33 H 167 C4167 0
19940 H 87.06 73.03 83.6 H 167 C4167 0
19941 C1 88.28 73.38 85.23 C.3 167 C4167 0
19942 O2 88.49 72.19 85.46 O.3 167 C4167 0
19943 O3 88.76 74.33 86.07 O.3 167 C4167 0
19944 C 87.21 76.05 84.75 C.3 167 C4167 0
19945 H 86.55 76.69 84.99 H 167 C4167 0
19946 H 87.77 75.88 85.5 H 167 C4167 0
19947 H 87.73 76.38 84.03 H 167 C4167 0
19948 C 83.45 74 87.25 C.3 167 C4167 0
19949 C 84.42 74.97 87.5 C.3 167 C4167 0
19950 H 82.88 73.91 88.01 H 167 C4167 0
19951 H 85.01 74.67 88.18 H 167 C4167 0
19952 H 84 75.78 87.79 H 167 C4167 0
19953 C1 85.22 75.25 86.21 C.3 167 C4167 0
19954 O2 85.42 76.4 85.85 O.3 167 C4167 0
19955 O3 85.69 74.21 85.48 O.3 167 C4167 0
19956 C 84.14 72.65 86.98 C.3 167 C4167 0
19957 H 83.48 71.98 86.81 H 167 C4167 0
19958 H 84.71 72.73 86.22 H 167 C4167 0
19959 H 84.66 72.4 87.73 H 167 C4167 0
19960 C 80.38 74.41 84.26 C.3 167 C4167 0
19961 C 81.35 73.41 84.13 C.3 167 C4167 0
19962 H 79.82 74.41 83.5 H 167 C4167 0
19963 H 81.94 73.64 83.42 H 167 C4167 0
19964 H 80.93 72.58 83.93 H 167 C4167 0
19965 C1 82.15 73.28 85.44 C.3 167 C4167 0
19966 O2 82.36 72.17 85.93 O.3 167 C4167 0
19967 O3 82.63 74.4 86.05 O.3 167 C4167 0
19968 C 81.07 75.78 84.39 C.3 167 C4167 0
19969 H 80.41 76.46 84.49 H 167 C4167 0
19970 H 81.64 75.78 85.15 H 167 C4167 0
19971 H 81.59 75.95 83.61 H 167 C4167 0
19972 C 77.31 74.33 87.28 C.3 167 C4167 0
19973 C 78.28 75.34 87.31 C.3 167 C4167 0
19974 H 76.75 74.41 88.04 H 167 C4167 0
19975 H 78.88 75.19 88.04 H 167 C4167 0
19976 H 77.86 76.18 87.41 H 167 C4167 0
19977 C1 79.08 75.32 85.99 C.3 167 C4167 0
19978 O2 79.29 76.37 85.38 O.3 167 C4167 0
19979 O3 79.56 74.14 85.5 O.3 167 C4167 0
19980 C 78.01 72.95 87.31 C.3 167 C4167 0
19981 H 77.35 72.27 87.29 H 167 C4167 0
19982 H 78.57 72.87 86.55 H 167 C4167 0
19983 H 78.52 72.87 88.1 H 167 C4167 0
19984 C 74.25 74.08 84.27 C.3 167 C4167 0
19985 C 75.22 73.07 84.36 C.3 167 C4167 0
19986 H 73.68 73.91 83.53 H 167 C4167 0
19987 H 75.81 73.13 83.62 H 167 C4167 0
19988 H 74.79 72.22 84.35 H 167 C4167 0
19989 C1 76.01 73.23 85.67 C.3 167 C4167 0
19990 O2 76.22 72.26 86.39 O.3 167 C4167 0
19991 O3 76.49 74.46 86.02 O.3 167 C4167 0
19992 C 74.94 75.44 84.1 C.3 167 C4167 0
19993 H 74.28 76.12 84.04 H 167 C4167 0
19994 H 75.5 75.61 84.84 H 167 C4167 0
19995 H 75.46 75.43 83.3 H 167 C4167 0
19996 C 71.18 74.66 87.24 C.3 167 C4167 0
19997 C 72.15 75.65 87.04 C.3 167 C4167 0
19998 H 70.61 74.91 87.96 H 167 C4167 0
19999 H 72.74 75.67 87.78 H 167 C4167 0
20000 H 71.73 76.5 86.95 H 167 C4167 0
20001 C1 72.95 75.34 85.76 C.3 167 C4167 0
20002 O2 73.15 76.23 84.93 O.3 167 C4167 0
20003 O3 73.42 74.09 85.54 O.3 167 C4167 0
20004 C 71.87 73.32 87.56 C.3 167 C4167 0
20005 H 71.21 72.65 87.7 H 167 C4167 0
20006 H 72.44 73.08 86.84 H 167 C4167 0
20007 H 72.39 73.42 88.35 H 167 C4167 0
20008 C 68.11 73.75 84.36 C.3 167 C4167 0
20009 C 69.08 72.79 84.66 C.3 167 C4167 0
20010 H 67.55 73.42 83.67 H 167 C4167 0
20011 H 69.67 72.69 83.92 H 167 C4167 0
20012 H 68.66 71.96 84.84 H 167 C4167 0
20013 C1 69.88 73.24 85.9 C.3 167 C4167 0
20014 O2 70.09 72.45 86.82 O.3 167 C4167 0
20015 O3 70.36 74.51 85.98 O.3 167 C4167 0
20016 C 68.8 75.04 83.88 C.3 167 C4167 0
20017 H 68.14 75.7 83.68 H 167 C4167 0
20018 H 69.37 75.37 84.57 H 167 C4167 0
20019 H 69.32 74.86 83.11 H 167 C4167 0
20020 C 65.04 74.97 87.12 C.3 167 C4167 0
20021 C 66.01 75.9 86.71 C.3 167 C4167 0
20022 H 64.48 75.38 87.77 H 167 C4167 0
20023 H 66.6 76.08 87.43 H 167 C4167 0
20024 H 65.59 76.7 86.44 H 167 C4167 0
20025 C1 66.81 75.32 85.53 C.3 167 C4167 0
20026 O2 67.02 76 84.53 O.3 167 C4167 0
20027 O3 67.29 74.04 85.59 O.3 167 C4167 0
20028 C 65.74 73.74 87.73 C.3 167 C4167 0
20029 H 65.08 73.12 88.01 H 167 C4167 0
20030 H 66.3 73.34 87.08 H 167 C4167 0
20031 H 66.25 74.01 88.48 H 167 C4167 0
20032 C 61.98 73.46 84.51 C.3 167 C4167 0
20033 C 62.95 72.58 85.02 C.3 167 C4167 0
20034 H 61.41 72.98 83.91 H 167 C4167 0
20035 H 63.54 72.32 84.32 H 167 C4167 0
20036 H 62.52 71.81 85.38 H 167 C4167 0
20037 C1 63.74 73.29 86.13 C.3 167 C4167 0
20038 O2 63.95 72.72 87.2 O.3 167 C4167 0
20039 O3 64.22 74.55 85.93 O.3 167 C4167 0
20040 C 62.67 74.61 83.76 C.3 167 C4167 0
20041 H 62.01 75.2 83.42 H 167 C4167 0
20042 H 63.23 75.08 84.36 H 167 C4167 0
20043 H 63.19 74.26 83.05 H 167 C4167 0
20044 C 58.91 75.25 86.93 C.3 167 C4167 0
20045 C 59.88 76.06 86.33 C.3 167 C4167 0
20046 H 58.34 75.79 87.48 H 167 C4167 0
20047 H 60.47 76.4 87 H 167 C4167 0
20048 H 59.46 76.79 85.89 H 167 C4167 0
20049 C1 60.68 75.24 85.31 C.3 167 C4167 0
20050 O2 60.88 75.69 84.18 O.3 167 C4167 0
20051 O3 61.15 74.01 85.65 O.3 167 C4167 0
20052 C 59.6 74.19 87.8 C.3 167 C4167 0
20053 H 58.94 73.64 88.21 H 167 C4167 0
20054 H 60.17 73.65 87.26 H 167 C4167 0
20055 H 60.12 74.61 88.48 H 167 C4167 0
20056 C 55.84 73.2 84.72 C.3 167 C4167 0
20057 C 56.81 72.46 85.41 C.3 167 C4167 0
20058 H 55.27 72.61 84.24 H 167 C4167 0
20059 H 57.4 72.05 84.79 H 167 C4167 0
20060 H 56.39 71.79 85.93 H 167 C4167 0
20061 C1 57.61 73.39 86.34 C.3 167 C4167 0
20062 O2 57.81 73.07 87.51 O.3 167 C4167 0
20063 O3 58.09 74.58 85.86 O.3 167 C4167 0
20064 C 56.53 74.16 83.74 C.3 167 C4167 0
20065 H 55.87 74.67 83.28 H 167 C4167 0
20066 H 57.1 74.75 84.22 H 167 C4167 0
20067 H 57.05 73.67 83.12 H 167 C4167 0
20068 C 52.77 75.49 86.69 C.3 167 C4167 0
20069 C 53.74 76.15 85.93 C.3 167 C4167 0
20070 H 52.21 76.13 87.11 H 167 C4167 0
20071 H 54.33 76.62 86.5 H 167 C4167 0
20072 H 53.32 76.76 85.34 H 167 C4167 0
20073 C1 54.54 75.11 85.11 C.3 167 C4167 0
20074 O2 54.75 75.3 83.91 O.3 167 C4167 0
20075 O3 55.02 73.99 85.71 O.3 167 C4167 0
20076 C 53.46 74.64 87.78 C.3 167 C4167 0
20077 H 52.81 74.19 88.29 H 167 C4167 0
20078 H 54.03 74 87.36 H 167 C4167 0
20079 H 53.98 75.2 88.34 H 167 C4167 0
20080 C 49.71 73 84.99 C.3 167 C4167 0
20081 C 50.68 72.42 85.82 C.3 167 C4167 0
20082 H 49.14 72.31 84.65 H 167 C4167 0
20083 H 51.27 71.89 85.3 H 167 C4167 0
20084 H 50.25 71.88 86.48 H 167 C4167 0
20085 C1 51.47 73.54 86.52 C.3 167 C4167 0
20086 O2 51.68 73.49 87.73 O.3 167 C4167 0
20087 O3 51.95 74.59 85.8 O.3 167 C4167 0
20088 C 50.4 73.72 83.82 C.3 167 C4167 0
20089 H 49.74 74.11 83.25 H 167 C4167 0
20090 H 50.96 74.4 84.16 H 167 C4167 0
20091 H 50.91 73.1 83.32 H 167 C4167 0
20092 C 46.64 75.66 86.41 C.3 167 C4167 0
20093 C 47.61 76.14 85.52 C.3 167 C4167 0
20094 H 46.07 76.38 86.67 H 167 C4167 0
20095 H 48.2 76.72 85.97 H 167 C4167 0
20096 H 47.19 76.6 84.81 H 167 C4167 0
20097 C1 48.41 74.95 84.95 C.3 167 C4167 0
20098 O2 48.61 74.87 83.74 O.3 167 C4167 0
20099 O3 48.88 73.98 85.78 O.3 167 C4167 0
20100 C 47.33 75.07 87.65 C.3 167 C4167 0
20101 H 46.67 74.75 88.25 H 167 C4167 0
20102 H 47.9 74.35 87.39 H 167 C4167 0
20103 H 47.85 75.74 88.07 H 167 C4167 0
20104 C 43.57 72.86 85.29 C.3 167 C4167 0
20105 C 44.54 72.48 86.23 C.3 167 C4167 0
20106 H 43.01 72.11 85.11 H 167 C4167 0
20107 H 45.13 71.85 85.84 H 167 C4167 0
20108 H 44.12 72.1 86.99 H 167 C4167 0
20109 C1 45.34 73.73 86.67 C.3 167 C4167 0
20110 O2 45.54 73.94 87.86 O.3 167 C4167 0
20111 O3 45.82 74.59 85.73 O.3 167 C4167 0
20112 C 44.26 73.31 83.99 C.3 167 C4167 0
20113 H 43.6 73.56 83.36 H 167 C4167 0
20114 H 44.83 74.05 84.17 H 167 C4167 0
20115 H 44.78 72.59 83.64 H 167 C4167 0
20116 C 40.5 75.77 86.09 C.3 167 C4167 0
20117 C 41.47 76.03 85.12 C.3 167 C4167 0
20118 H 39.94 76.52 86.19 H 167 C4167 0
20119 H 42.06 76.71 85.43 H 167 C4167 0
20120 H 41.05 76.33 84.32 H 167 C4167 0
20121 C1 42.27 74.75 84.82 C.3 167 C4167 0
20122 O2 42.48 74.41 83.66 O.3 167 C4167 0
20123 O3 42.75 73.99 85.85 O.3 167 C4167 0
20124 C 41.19 75.46 87.43 C.3 167 C4167 0
20125 H 40.54 75.28 88.09 H 167 C4167 0
20126 H 41.76 74.71 87.33 H 167 C4167 0
20127 H 41.71 76.21 87.7 H 167 C4167 0
20128 C 37.44 72.79 85.62 C.3 167 C4167 0
20129 C 38.41 72.63 86.62 C.3 167 C4167 0
20130 H 36.87 72.02 85.61 H 167 C4167 0
20131 H 39 71.92 86.38 H 167 C4167 0
20132 H 37.98 72.42 87.44 H 167 C4167 0
20133 C1 39.2 73.94 86.77 C.3 167 C4167 0
20134 O2 39.41 74.41 87.89 O.3 167 C4167 0
20135 O3 39.68 74.58 85.67 O.3 167 C4167 0
20136 C 38.13 72.94 84.25 C.3 167 C4167 0
20137 H 37.47 73.05 83.58 H 167 C4167 0
20138 H 38.69 73.7 84.27 H 167 C4167 0
20139 H 38.64 72.16 84.07 H 167 C4167 0
20140 C 34.37 75.8 85.76 C.3 167 C4167 0
20141 C 35.34 75.85 84.75 C.3 167 C4167 0
20142 H 33.8 76.56 85.69 H 167 C4167 0
20143 H 35.93 76.57 84.91 H 167 C4167 0
20144 H 34.91 75.96 83.91 H 167 C4167 0
20145 C1 36.14 74.53 84.74 C.3 167 C4167 0
20146 O2 36.34 73.94 83.68 O.3 167 C4167 0
20147 O3 36.61 74.02 85.91 O.3 167 C4167 0
20148 C 35.06 75.8 87.13 C.3 167 C4167 0
20149 H 34.4 75.77 87.82 H 167 C4167 0
20150 H 35.62 75.04 87.2 H 167 C4167 0
20151 H 35.58 76.59 87.23 H 167 C4167 0
20152 C 31.3 72.79 85.96 C.3 167 C4167 0
20153 C 32.27 72.86 86.96 C.3 167 C4167 0
20154 H 30.73 72.04 86.11 H 167 C4167 0
20155 H 32.86 72.11 86.88 H 167 C4167 0
20156 H 31.85 72.83 87.81 H 167 C4167 0
20157 C1 33.07 74.17 86.82 C.3 167 C4167 0
20158 O2 33.27 74.87 87.81 O.3 167 C4167 0
20159 O3 33.54 74.54 85.61 O.3 167 C4167 0
20160 C 31.99 72.64 84.59 C.3 167 C4167 0
20161 H 31.33 72.59 83.9 H 167 C4167 0
20162 H 32.56 73.39 84.43 H 167 C4167 0
20163 H 32.51 71.84 84.58 H 167 C4167 0
20164 C 28.23 75.76 85.43 C.3 167 C4167 0
20165 C 29.2 75.59 84.43 C.3 167 C4167 0
20166 H 27.67 76.49 85.19 H 167 C4167 0
20167 H 29.79 76.33 84.43 H 167 C4167 0
20168 H 28.78 75.51 83.59 H 167 C4167 0
20169 C1 30 74.3 84.72 C.3 167 C4167 0
20170 O2 30.21 73.49 83.81 O.3 167 C4167 0
20171 O3 30.48 74.06 85.97 O.3 167 C4167 0
20172 C 28.92 76.06 86.77 C.3 167 C4167 0
20173 H 28.27 76.18 87.44 H 167 C4167 0
20174 H 29.49 75.34 87 H 167 C4167 0
20175 H 29.44 76.86 86.69 H 167 C4167 0
20176 C 25.17 72.87 86.28 C.3 167 C4167 0
20177 C 26.14 73.15 87.25 C.3 167 C4167 0
20178 H 24.6 72.17 86.6 H 167 C4167 0
20179 H 26.73 72.41 87.33 H 167 C4167 0
20180 H 25.71 73.32 88.08 H 167 C4167 0
20181 C1 26.93 74.4 86.82 C.3 167 C4167 0
20182 O2 27.14 75.3 87.63 O.3 167 C4167 0
20183 O3 27.41 74.5 85.56 O.3 167 C4167 0
20184 C 25.86 72.42 84.98 C.3 167 C4167 0
20185 H 25.2 72.23 84.32 H 167 C4167 0
20186 H 26.42 73.11 84.67 H 167 C4167 0
20187 H 26.37 71.64 85.15 H 167 C4167 0
20188 C 22.1 75.65 85.11 C.3 167 C4167 0
20189 C 23.07 75.26 84.18 C.3 167 C4167 0
20190 H 21.53 76.31 84.72 H 167 C4167 0
20191 H 23.66 75.98 84.01 H 167 C4167 0
20192 H 22.64 75 83.37 H 167 C4167 0
20193 C1 23.87 74.07 84.74 C.3 167 C4167 0
20194 O2 24.07 73.08 84.04 O.3 167 C4167 0
20195 O3 24.34 74.1 86.01 O.3 167 C4167 0
20196 C 22.79 76.24 86.36 C.3 167 C4167 0
20197 H 22.13 76.51 86.99 H 167 C4167 0
20198 H 23.35 75.58 86.74 H 167 C4167 0
20199 H 23.31 77 86.1 H 167 C4167 0
20200 C 19.03 73.01 86.58 C.3 167 C4167 0
20201 C 20 73.51 87.46 C.3 167 C4167 0
20202 H 18.46 72.41 87.04 H 167 C4167 0
20203 H 20.59 72.8 87.71 H 167 C4167 0
20204 H 19.58 73.85 88.24 H 167 C4167 0
20205 C1 20.8 74.63 86.77 C.3 167 C4167 0
20206 O2 21 75.69 87.37 O.3 167 C4167 0
20207 O3 21.27 74.45 85.51 O.3 167 C4167 0
20208 C 19.72 72.29 85.41 C.3 167 C4167 0
20209 H 19.06 71.96 84.81 H 167 C4167 0
20210 H 20.29 72.9 84.95 H 167 C4167 0
20211 H 20.24 71.57 85.75 H 167 C4167 0
20212 C 15.96 75.47 84.83 C.3 167 C4167 0
20213 C 16.93 74.89 84.01 C.3 167 C4167 0
20214 H 15.4 76.03 84.31 H 167 C4167 0
20215 H 17.52 75.56 83.69 H 167 C4167 0
20216 H 16.51 74.46 83.27 H 167 C4167 0
20217 C1 17.73 73.85 84.82 C.3 167 C4167 0
20218 O2 17.94 72.73 84.35 O.3 167 C4167 0
20219 O3 18.21 74.16 86.05 O.3 167 C4167 0
20220 C 16.65 76.32 85.91 C.3 167 C4167 0
20221 H 16 76.72 86.47 H 167 C4167 0
20222 H 17.22 75.77 86.44 H 167 C4167 0
20223 H 17.17 77 85.5 H 167 C4167 0
20224 C 12.89 73.22 86.84 C.3 167 C4167 0
20225 C 13.87 73.9 87.6 C.3 167 C4167 0
20226 H 12.33 72.73 87.42 H 167 C4167 0
20227 H 14.45 73.27 87.99 H 167 C4167 0
20228 H 13.44 74.4 88.28 H 167 C4167 0
20229 C1 14.66 74.84 86.68 C.3 167 C4167 0
20230 O2 14.87 76.01 87.02 O.3 167 C4167 0
20231 O3 15.14 74.39 85.49 O.3 167 C4167 0
20232 C 13.59 72.26 85.86 C.3 167 C4167 0
20233 H 12.93 71.8 85.35 H 167 C4167 0
20234 H 14.15 72.75 85.28 H 167 C4167 0
20235 H 14.1 71.63 86.35 H 167 C4167 0
20236 C 9.83 75.24 84.59 C.3 167 C4167 0
20237 C 10.8 74.48 83.92 C.3 167 C4167 0
20238 H 9.26 75.66 83.96 H 167 C4167 0
20239 H 11.39 75.07 83.46 H 167 C4167 0
20240 H 10.37 73.9 83.3 H 167 C4167 0
20241 C1 11.59 73.65 84.94 C.3 167 C4167 0
20242 O2 11.8 72.45 84.72 O.3 167 C4167 0
20243 O3 12.07 74.23 86.07 O.3 167 C4167 0
20244 C 10.52 76.3 85.46 C.3 167 C4167 0
20245 H 9.86 76.81 85.92 H 167 C4167 0
20246 H 11.08 75.88 86.1 H 167 C4167 0
20247 H 11.04 76.88 84.91 H 167 C4167 0
20248 C 6.76 73.49 87.05 C.3 167 C4167 0
20249 C 7.73 74.31 87.64 C.3 167 C4167 0
20250 H 6.19 73.13 87.73 H 167 C4167 0
20251 H 8.32 73.78 88.16 H 167 C4167 0
20252 H 7.31 74.95 88.19 H 167 C4167 0
20253 C1 8.53 75.03 86.53 C.3 167 C4167 0
20254 O2 8.73 76.24 86.61 O.3 167 C4167 0
20255 O3 9 74.33 85.47 O.3 167 C4167 0
20256 C 7.45 72.33 86.3 C.3 167 C4167 0
20257 H 6.79 71.77 85.91 H 167 C4167 0
20258 H 8.02 72.68 85.63 H 167 C4167 0
20259 H 7.97 71.82 86.92 H 167 C4167 0
20260 H 3.17 74.52 85.08 H 168 C4168 0
20261 C 3.69 74.95 84.41 C.3 168 C4168 0
20262 C 4.66 74.07 83.92 C.3 168 C4168 0
20263 H 3.13 75.23 83.7 H 168 C4168 0
20264 H 5.25 74.54 83.35 H 168 C4168 0
20265 H 4.24 73.37 83.44 H 168 C4168 0
20266 C1 5.46 73.48 85.1 C.3 168 C4168 0
20267 O2 5.67 72.27 85.16 O.3 168 C4168 0
20268 O3 5.94 74.29 86.08 O.3 168 C4168 0
20269 C 4.38 76.19 85.03 C.3 168 C4168 0
20270 H 3.72 76.78 85.36 H 168 C4168 0
20271 H 4.95 75.91 85.74 H 168 C4168 0
20272 H 4.9 76.62 84.36 H 168 C4168 0
20273 C 92.65 86.47 4.44 C.3 169 C4169 0
20274 C 93.62 85.63 3.89 C.3 169 C4169 0
20275 H 92.09 86.8 3.75 H 169 C4169 0
20276 H 94.21 86.14 3.35 H 169 C4169 0
20277 H 93.2 84.96 3.36 H 169 C4169 0
20278 C1 94.42 84.95 5.02 C.3 169 C4169 0
20279 O2 94.63 83.74 4.99 O.3 169 C4169 0
20280 O3 94.9 85.69 6.05 O.3 169 C4169 0
20281 H5 95.42 85.14 6.63 H 169 C4169 0
20282 C 93.34 87.65 5.15 C.3 169 C4169 0
20283 H 92.68 88.23 5.52 H 169 C4169 0
20284 H 93.91 87.33 5.83 H 169 C4169 0
20285 H 93.86 88.14 4.51 H 169 C4169 0
20286 C 89.58 85.11 7.13 C.3 170 C4170 0
20287 C 90.55 86.01 7.59 C.3 170 C4170 0
20288 H 89.02 84.86 7.85 H 170 C4170 0
20289 H 91.15 85.56 8.19 H 170 C4170 0
20290 H 90.13 86.73 8.04 H 170 C4170 0
20291 C1 91.35 86.55 6.39 C.3 170 C4170 0
20292 O2 91.56 87.76 6.29 O.3 170 C4170 0
20293 O3 91.83 85.7 5.45 O.3 170 C4170 0
20294 C 90.28 83.85 6.57 C.3 170 C4170 0
20295 H 89.62 83.24 6.26 H 170 C4170 0
20296 H 90.84 84.1 5.85 H 170 C4170 0
20297 H 90.79 83.44 7.25 H 170 C4170 0
20298 C 86.52 86.17 4.31 C.3 170 C4170 0
20299 C 87.49 85.22 3.95 C.3 170 C4170 0
20300 H 85.95 86.33 3.56 H 170 C4170 0
20301 H 88.08 85.6 3.31 H 170 C4170 0
20302 H 87.06 84.46 3.58 H 170 C4170 0
20303 C1 88.28 84.81 5.21 C.3 170 C4170 0
20304 O2 88.49 83.62 5.44 O.3 170 C4170 0
20305 O3 88.76 85.76 6.05 O.3 170 C4170 0
20306 C 87.21 87.48 4.73 C.3 170 C4170 0
20307 H 86.55 88.12 4.97 H 170 C4170 0
20308 H 87.77 87.31 5.48 H 170 C4170 0
20309 H 87.73 87.81 4.01 H 170 C4170 0
20310 C 83.45 85.43 7.23 C.3 170 C4170 0
20311 C 84.42 86.4 7.48 C.3 170 C4170 0
20312 H 82.88 85.34 7.99 H 170 C4170 0
20313 H 85.01 86.1 8.16 H 170 C4170 0
20314 H 84 87.21 7.77 H 170 C4170 0
20315 C1 85.22 86.68 6.19 C.3 170 C4170 0
20316 O2 85.42 87.83 5.83 O.3 170 C4170 0
20317 O3 85.69 85.64 5.46 O.3 170 C4170 0
20318 C 84.14 84.08 6.96 C.3 170 C4170 0
20319 H 83.48 83.41 6.79 H 170 C4170 0
20320 H 84.71 84.16 6.2 H 170 C4170 0
20321 H 84.66 83.83 7.71 H 170 C4170 0
20322 C 80.38 85.84 4.24 C.3 170 C4170 0
20323 C 81.35 84.84 4.11 C.3 170 C4170 0
20324 H 79.82 85.84 3.48 H 170 C4170 0
20325 H 81.94 85.07 3.4 H 170 C4170 0
20326 H 80.93 84.01 3.91 H 170 C4170 0
20327 C1 82.15 84.71 5.42 C.3 170 C4170 0
20328 O2 82.36 83.6 5.91 O.3 170 C4170 0
20329 O3 82.63 85.83 6.03 O.3 170 C4170 0
20330 C 81.07 87.21 4.37 C.3 170 C4170 0
20331 H 80.41 87.89 4.47 H 170 C4170 0
20332 H 81.64 87.21 5.13 H 170 C4170 0
20333 H 81.59 87.38 3.59 H 170 C4170 0
20334 C 77.31 85.76 7.26 C.3 170 C4170 0
20335 C 78.28 86.77 7.29 C.3 170 C4170 0
20336 H 76.75 85.84 8.02 H 170 C4170 0
20337 H 78.88 86.62 8.02 H 170 C4170 0
20338 H 77.86 87.61 7.39 H 170 C4170 0
20339 C1 79.08 86.75 5.97 C.3 170 C4170 0
20340 O2 79.29 87.8 5.36 O.3 170 C4170 0
20341 O3 79.56 85.57 5.48 O.3 170 C4170 0
20342 C 78.01 84.38 7.29 C.3 170 C4170 0
20343 H 77.35 83.7 7.27 H 170 C4170 0
20344 H 78.57 84.3 6.53 H 170 C4170 0
20345 H 78.52 84.3 8.08 H 170 C4170 0
20346 C 74.25 85.51 4.25 C.3 170 C4170 0
20347 C 75.22 84.5 4.34 C.3 170 C4170 0
20348 H 73.68 85.34 3.51 H 170 C4170 0
20349 H 75.81 84.56 3.6 H 170 C4170 0
20350 H 74.79 83.65 4.33 H 170 C4170 0
20351 C1 76.01 84.66 5.65 C.3 170 C4170 0
20352 O2 76.22 83.69 6.37 O.3 170 C4170 0
20353 O3 76.49 85.89 6 O.3 170 C4170 0
20354 C 74.94 86.87 4.08 C.3 170 C4170 0
20355 H 74.28 87.55 4.02 H 170 C4170 0
20356 H 75.5 87.04 4.82 H 170 C4170 0
20357 H 75.46 86.86 3.28 H 170 C4170 0
20358 C 71.18 86.09 7.22 C.3 170 C4170 0
20359 C 72.15 87.08 7.02 C.3 170 C4170 0
20360 H 70.61 86.34 7.94 H 170 C4170 0
20361 H 72.74 87.1 7.76 H 170 C4170 0
20362 H 71.73 87.93 6.93 H 170 C4170 0
20363 C1 72.95 86.77 5.74 C.3 170 C4170 0
20364 O2 73.15 87.66 4.91 O.3 170 C4170 0
20365 O3 73.42 85.52 5.52 O.3 170 C4170 0
20366 C 71.87 84.75 7.54 C.3 170 C4170 0
20367 H 71.21 84.08 7.68 H 170 C4170 0
20368 H 72.44 84.51 6.82 H 170 C4170 0
20369 H 72.39 84.85 8.33 H 170 C4170 0
20370 C 68.11 85.18 4.34 C.3 170 C4170 0
20371 C 69.08 84.22 4.64 C.3 170 C4170 0
20372 H 67.55 84.85 3.65 H 170 C4170 0
20373 H 69.67 84.12 3.9 H 170 C4170 0
20374 H 68.66 83.39 4.82 H 170 C4170 0
20375 C1 69.88 84.67 5.88 C.3 170 C4170 0
20376 O2 70.09 83.88 6.8 O.3 170 C4170 0
20377 O3 70.36 85.94 5.96 O.3 170 C4170 0
20378 C 68.8 86.47 3.86 C.3 170 C4170 0
20379 H 68.14 87.13 3.66 H 170 C4170 0
20380 H 69.37 86.8 4.55 H 170 C4170 0
20381 H 69.32 86.29 3.09 H 170 C4170 0
20382 C 65.04 86.4 7.1 C.3 170 C4170 0
20383 C 66.01 87.33 6.69 C.3 170 C4170 0
20384 H 64.48 86.81 7.75 H 170 C4170 0
20385 H 66.6 87.51 7.41 H 170 C4170 0
20386 H 65.59 88.13 6.42 H 170 C4170 0
20387 C1 66.81 86.75 5.51 C.3 170 C4170 0
20388 O2 67.02 87.43 4.51 O.3 170 C4170 0
20389 O3 67.29 85.47 5.57 O.3 170 C4170 0
20390 C 65.74 85.17 7.71 C.3 170 C4170 0
20391 H 65.08 84.55 7.99 H 170 C4170 0
20392 H 66.3 84.77 7.06 H 170 C4170 0
20393 H 66.25 85.44 8.46 H 170 C4170 0
20394 C 61.98 84.89 4.49 C.3 170 C4170 0
20395 C 62.95 84.01 5 C.3 170 C4170 0
20396 H 61.41 84.41 3.89 H 170 C4170 0
20397 H 63.54 83.75 4.3 H 170 C4170 0
20398 H 62.52 83.24 5.36 H 170 C4170 0
20399 C1 63.74 84.72 6.11 C.3 170 C4170 0
20400 O2 63.95 84.15 7.18 O.3 170 C4170 0
20401 O3 64.22 85.98 5.91 O.3 170 C4170 0
20402 C 62.67 86.04 3.74 C.3 170 C4170 0
20403 H 62.01 86.63 3.4 H 170 C4170 0
20404 H 63.23 86.51 4.34 H 170 C4170 0
20405 H 63.19 85.69 3.03 H 170 C4170 0
20406 C 58.91 86.68 6.91 C.3 170 C4170 0
20407 C 59.88 87.49 6.31 C.3 170 C4170 0
20408 H 58.34 87.22 7.46 H 170 C4170 0
20409 H 60.47 87.83 6.98 H 170 C4170 0
20410 H 59.46 88.22 5.87 H 170 C4170 0
20411 C1 60.68 86.67 5.29 C.3 170 C4170 0
20412 O2 60.88 87.12 4.16 O.3 170 C4170 0
20413 O3 61.15 85.44 5.63 O.3 170 C4170 0
20414 C 59.6 85.62 7.78 C.3 170 C4170 0
20415 H 58.94 85.07 8.19 H 170 C4170 0
20416 H 60.17 85.08 7.24 H 170 C4170 0
20417 H 60.12 86.04 8.46 H 170 C4170 0
20418 C 55.84 84.63 4.7 C.3 170 C4170 0
20419 C 56.81 83.89 5.39 C.3 170 C4170 0
20420 H 55.27 84.04 4.22 H 170 C4170 0
20421 H 57.4 83.48 4.77 H 170 C4170 0
20422 H 56.39 83.22 5.91 H 170 C4170 0
20423 C1 57.61 84.82 6.32 C.3 170 C4170 0
20424 O2 57.81 84.5 7.49 O.3 170 C4170 0
20425 O3 58.09 86.01 5.84 O.3 170 C4170 0
20426 C 56.53 85.59 3.72 C.3 170 C4170 0
20427 H 55.87 86.1 3.26 H 170 C4170 0
20428 H 57.1 86.18 4.2 H 170 C4170 0
20429 H 57.05 85.1 3.1 H 170 C4170 0
20430 C 52.77 86.92 6.67 C.3 170 C4170 0
20431 C 53.74 87.58 5.91 C.3 170 C4170 0
20432 H 52.21 87.56 7.09 H 170 C4170 0
20433 H 54.33 88.05 6.48 H 170 C4170 0
20434 H 53.32 88.19 5.32 H 170 C4170 0
20435 C1 54.54 86.54 5.09 C.3 170 C4170 0
20436 O2 54.75 86.73 3.89 O.3 170 C4170 0
20437 O3 55.02 85.42 5.69 O.3 170 C4170 0
20438 C 53.46 86.07 7.76 C.3 170 C4170 0
20439 H 52.81 85.62 8.27 H 170 C4170 0
20440 H 54.03 85.43 7.34 H 170 C4170 0
20441 H 53.98 86.63 8.32 H 170 C4170 0
20442 C 49.71 84.43 4.97 C.3 170 C4170 0
20443 C 50.68 83.85 5.8 C.3 170 C4170 0
20444 H 49.14 83.74 4.63 H 170 C4170 0
20445 H 51.27 83.32 5.28 H 170 C4170 0
20446 H 50.25 83.31 6.46 H 170 C4170 0
20447 C1 51.47 84.97 6.5 C.3 170 C4170 0
20448 O2 51.68 84.92 7.71 O.3 170 C4170 0
20449 O3 51.95 86.02 5.78 O.3 170 C4170 0
20450 C 50.4 85.15 3.8 C.3 170 C4170 0
20451 H 49.74 85.54 3.23 H 170 C4170 0
20452 H 50.96 85.83 4.14 H 170 C4170 0
20453 H 50.91 84.53 3.3 H 170 C4170 0
20454 C 46.64 87.09 6.39 C.3 170 C4170 0
20455 C 47.61 87.57 5.5 C.3 170 C4170 0
20456 H 46.07 87.81 6.65 H 170 C4170 0
20457 H 48.2 88.15 5.95 H 170 C4170 0
20458 H 47.19 88.03 4.79 H 170 C4170 0
20459 C1 48.41 86.38 4.93 C.3 170 C4170 0
20460 O2 48.61 86.3 3.72 O.3 170 C4170 0
20461 O3 48.88 85.41 5.76 O.3 170 C4170 0
20462 C 47.33 86.5 7.63 C.3 170 C4170 0
20463 H 46.67 86.18 8.23 H 170 C4170 0
20464 H 47.9 85.78 7.37 H 170 C4170 0
20465 H 47.85 87.17 8.05 H 170 C4170 0
20466 C 43.57 84.29 5.27 C.3 170 C4170 0
20467 C 44.54 83.91 6.21 C.3 170 C4170 0
20468 H 43.01 83.54 5.09 H 170 C4170 0
20469 H 45.13 83.28 5.82 H 170 C4170 0
20470 H 44.12 83.53 6.97 H 170 C4170 0
20471 C1 45.34 85.16 6.65 C.3 170 C4170 0
20472 O2 45.54 85.37 7.84 O.3 170 C4170 0
20473 O3 45.82 86.02 5.71 O.3 170 C4170 0
20474 C 44.26 84.74 3.97 C.3 170 C4170 0
20475 H 43.6 84.99 3.34 H 170 C4170 0
20476 H 44.83 85.48 4.15 H 170 C4170 0
20477 H 44.78 84.02 3.62 H 170 C4170 0
20478 C 40.5 87.2 6.07 C.3 170 C4170 0
20479 C 41.47 87.46 5.1 C.3 170 C4170 0
20480 H 39.94 87.95 6.17 H 170 C4170 0
20481 H 42.06 88.14 5.41 H 170 C4170 0
20482 H 41.05 87.76 4.3 H 170 C4170 0
20483 C1 42.27 86.18 4.8 C.3 170 C4170 0
20484 O2 42.48 85.84 3.64 O.3 170 C4170 0
20485 O3 42.75 85.42 5.83 O.3 170 C4170 0
20486 C 41.19 86.89 7.41 C.3 170 C4170 0
20487 H 40.54 86.71 8.07 H 170 C4170 0
20488 H 41.76 86.14 7.31 H 170 C4170 0
20489 H 41.71 87.64 7.68 H 170 C4170 0
20490 C 37.44 84.22 5.6 C.3 170 C4170 0
20491 C 38.41 84.06 6.6 C.3 170 C4170 0
20492 H 36.87 83.45 5.59 H 170 C4170 0
20493 H 39 83.35 6.36 H 170 C4170 0
20494 H 37.98 83.85 7.42 H 170 C4170 0
20495 C1 39.2 85.37 6.75 C.3 170 C4170 0
20496 O2 39.41 85.84 7.87 O.3 170 C4170 0
20497 O3 39.68 86.01 5.65 O.3 170 C4170 0
20498 C 38.13 84.37 4.23 C.3 170 C4170 0
20499 H 37.47 84.48 3.56 H 170 C4170 0
20500 H 38.69 85.13 4.25 H 170 C4170 0
20501 H 38.64 83.59 4.05 H 170 C4170 0
20502 C 34.37 87.23 5.74 C.3 170 C4170 0
20503 C 35.34 87.28 4.73 C.3 170 C4170 0
20504 H 33.8 87.99 5.67 H 170 C4170 0
20505 H 35.93 88 4.89 H 170 C4170 0
20506 H 34.91 87.39 3.89 H 170 C4170 0
20507 C1 36.14 85.96 4.72 C.3 170 C4170 0
20508 O2 36.34 85.37 3.66 O.3 170 C4170 0
20509 O3 36.61 85.45 5.89 O.3 170 C4170 0
20510 C 35.06 87.23 7.11 C.3 170 C4170 0
20511 H 34.4 87.2 7.8 H 170 C4170 0
20512 H 35.62 86.47 7.18 H 170 C4170 0
20513 H 35.58 88.02 7.21 H 170 C4170 0
20514 C 31.3 84.22 5.94 C.3 170 C4170 0
20515 C 32.27 84.29 6.94 C.3 170 C4170 0
20516 H 30.73 83.47 6.09 H 170 C4170 0
20517 H 32.86 83.54 6.86 H 170 C4170 0
20518 H 31.85 84.26 7.79 H 170 C4170 0
20519 C1 33.07 85.6 6.8 C.3 170 C4170 0
20520 O2 33.27 86.3 7.79 O.3 170 C4170 0
20521 O3 33.54 85.97 5.59 O.3 170 C4170 0
20522 C 31.99 84.07 4.57 C.3 170 C4170 0
20523 H 31.33 84.02 3.88 H 170 C4170 0
20524 H 32.56 84.82 4.41 H 170 C4170 0
20525 H 32.51 83.27 4.56 H 170 C4170 0
20526 C 28.23 87.19 5.41 C.3 170 C4170 0
20527 C 29.2 87.02 4.41 C.3 170 C4170 0
20528 H 27.67 87.92 5.17 H 170 C4170 0
20529 H 29.79 87.76 4.41 H 170 C4170 0
20530 H 28.78 86.94 3.57 H 170 C4170 0
20531 C1 30 85.73 4.7 C.3 170 C4170 0
20532 O2 30.21 84.92 3.79 O.3 170 C4170 0
20533 O3 30.48 85.49 5.95 O.3 170 C4170 0
20534 C 28.92 87.49 6.75 C.3 170 C4170 0
20535 H 28.27 87.61 7.42 H 170 C4170 0
20536 H 29.49 86.77 6.98 H 170 C4170 0
20537 H 29.44 88.29 6.67 H 170 C4170 0
20538 C 25.17 84.3 6.26 C.3 170 C4170 0
20539 C 26.14 84.58 7.23 C.3 170 C4170 0
20540 H 24.6 83.6 6.58 H 170 C4170 0
20541 H 26.73 83.84 7.31 H 170 C4170 0
20542 H 25.71 84.75 8.06 H 170 C4170 0
20543 C1 26.93 85.83 6.8 C.3 170 C4170 0
20544 O2 27.14 86.73 7.61 O.3 170 C4170 0
20545 O3 27.41 85.93 5.54 O.3 170 C4170 0
20546 C 25.86 83.85 4.96 C.3 170 C4170 0
20547 H 25.2 83.66 4.3 H 170 C4170 0
20548 H 26.42 84.54 4.65 H 170 C4170 0
20549 H 26.37 83.07 5.13 H 170 C4170 0
20550 C 22.1 87.08 5.09 C.3 170 C4170 0
20551 C 23.07 86.69 4.16 C.3 170 C4170 0
20552 H 21.53 87.74 4.7 H 170 C4170 0
20553 H 23.66 87.41 3.99 H 170 C4170 0
20554 H 22.64 86.43 3.35 H 170 C4170 0
20555 C1 23.87 85.5 4.72 C.3 170 C4170 0
20556 O2 24.07 84.51 4.02 O.3 170 C4170 0
20557 O3 24.34 85.53 5.99 O.3 170 C4170 0
20558 C 22.79 87.67 6.34 C.3 170 C4170 0
20559 H 22.13 87.94 6.97 H 170 C4170 0
20560 H 23.35 87.01 6.72 H 170 C4170 0
20561 H 23.31 88.43 6.08 H 170 C4170 0
20562 C 19.03 84.44 6.56 C.3 170 C4170 0
20563 C 20 84.94 7.44 C.3 170 C4170 0
20564 H 18.46 83.84 7.02 H 170 C4170 0
20565 H 20.59 84.23 7.69 H 170 C4170 0
20566 H 19.58 85.28 8.22 H 170 C4170 0
20567 C1 20.8 86.06 6.75 C.3 170 C4170 0
20568 O2 21 87.12 7.35 O.3 170 C4170 0
20569 O3 21.27 85.88 5.49 O.3 170 C4170 0
20570 C 19.72 83.72 5.39 C.3 170 C4170 0
20571 H 19.06 83.39 4.79 H 170 C4170 0
20572 H 20.29 84.33 4.93 H 170 C4170 0
20573 H 20.24 83 5.73 H 170 C4170 0
20574 C 15.96 86.9 4.81 C.3 170 C4170 0
20575 C 16.93 86.32 3.99 C.3 170 C4170 0
20576 H 15.4 87.46 4.29 H 170 C4170 0
20577 H 17.52 86.99 3.67 H 170 C4170 0
20578 H 16.51 85.89 3.25 H 170 C4170 0
20579 C1 17.73 85.28 4.8 C.3 170 C4170 0
20580 O2 17.94 84.16 4.33 O.3 170 C4170 0
20581 O3 18.21 85.59 6.03 O.3 170 C4170 0
20582 C 16.65 87.75 5.89 C.3 170 C4170 0
20583 H 16 88.15 6.45 H 170 C4170 0
20584 H 17.22 87.2 6.42 H 170 C4170 0
20585 H 17.17 88.43 5.48 H 170 C4170 0
20586 C 12.89 84.65 6.82 C.3 170 C4170 0
20587 C 13.87 85.33 7.58 C.3 170 C4170 0
20588 H 12.33 84.16 7.4 H 170 C4170 0
20589 H 14.45 84.7 7.97 H 170 C4170 0
20590 H 13.44 85.83 8.26 H 170 C4170 0
20591 C1 14.66 86.27 6.66 C.3 170 C4170 0
20592 O2 14.87 87.44 7 O.3 170 C4170 0
20593 O3 15.14 85.82 5.47 O.3 170 C4170 0
20594 C 13.59 83.69 5.84 C.3 170 C4170 0
20595 H 12.93 83.23 5.33 H 170 C4170 0
20596 H 14.15 84.18 5.26 H 170 C4170 0
20597 H 14.1 83.06 6.33 H 170 C4170 0
20598 C 9.83 86.67 4.57 C.3 170 C4170 0
20599 C 10.8 85.91 3.9 C.3 170 C4170 0
20600 H 9.26 87.09 3.94 H 170 C4170 0
20601 H 11.39 86.5 3.44 H 170 C4170 0
20602 H 10.37 85.33 3.28 H 170 C4170 0
20603 C1 11.59 85.08 4.92 C.3 170 C4170 0
20604 O2 11.8 83.88 4.7 O.3 170 C4170 0
20605 O3 12.07 85.66 6.05 O.3 170 C4170 0
20606 C 10.52 87.73 5.44 C.3 170 C4170 0
20607 H 9.86 88.24 5.9 H 170 C4170 0
20608 H 11.08 87.31 6.08 H 170 C4170 0
20609 H 11.04 88.31 4.89 H 170 C4170 0
20610 C 6.76 84.92 7.03 C.3 170 C4170 0
20611 C 7.73 85.74 7.62 C.3 170 C4170 0
20612 H 6.19 84.56 7.71 H 170 C4170 0
20613 H 8.32 85.21 8.14 H 170 C4170 0
20614 H 7.31 86.38 8.17 H 170 C4170 0
20615 C1 8.53 86.46 6.51 C.3 170 C4170 0
20616 O2 8.73 87.67 6.59 O.3 170 C4170 0
20617 O3 9 85.76 5.45 O.3 170 C4170 0
20618 C 7.45 83.76 6.28 C.3 170 C4170 0
20619 H 6.79 83.2 5.89 H 170 C4170 0
20620 H 8.02 84.11 5.61 H 170 C4170 0
20621 H 7.97 83.25 6.9 H 170 C4170 0
20622 H 3.17 85.95 5.06 H 171 C4171 0
20623 C 3.69 86.38 4.39 C.3 171 C4171 0
20624 C 4.66 85.5 3.9 C.3 171 C4171 0
20625 H 3.13 86.66 3.68 H 171 C4171 0
20626 H 5.25 85.97 3.33 H 171 C4171 0
20627 H 4.24 84.8 3.42 H 171 C4171 0
20628 C1 5.46 84.91 5.08 C.3 171 C4171 0
20629 O2 5.67 83.7 5.14 O.3 171 C4171 0
20630 O3 5.94 85.72 6.06 O.3 171 C4171 0
20631 C 4.38 87.62 5.01 C.3 171 C4171 0
20632 H 3.72 88.21 5.34 H 171 C4171 0
20633 H 4.95 87.34 5.72 H 171 C4171 0
20634 H 4.9 88.05 4.34 H 171 C4171 0
20635 C 92.65 86.47 15.87 C.3 172 C4172 0
20636 C 93.62 85.63 15.32 C.3 172 C4172 0
20637 H 92.09 86.8 15.18 H 172 C4172 0
20638 H 94.21 86.14 14.78 H 172 C4172 0
20639 H 93.2 84.96 14.79 H 172 C4172 0
20640 C1 94.42 84.95 16.45 C.3 172 C4172 0
20641 O2 94.63 83.74 16.42 O.3 172 C4172 0
20642 O3 94.9 85.69 17.48 O.3 172 C4172 0
20643 H5 95.42 85.14 18.06 H 172 C4172 0
20644 C 93.34 87.65 16.58 C.3 172 C4172 0
20645 H 92.68 88.23 16.95 H 172 C4172 0
20646 H 93.91 87.33 17.26 H 172 C4172 0
20647 H 93.86 88.14 15.94 H 172 C4172 0
20648 C 89.58 85.11 18.56 C.3 173 C4173 0
20649 C 90.55 86.01 19.02 C.3 173 C4173 0
20650 H 89.02 84.86 19.28 H 173 C4173 0
20651 H 91.15 85.56 19.62 H 173 C4173 0
20652 H 90.13 86.73 19.47 H 173 C4173 0
20653 C1 91.35 86.55 17.82 C.3 173 C4173 0
20654 O2 91.56 87.76 17.72 O.3 173 C4173 0
20655 O3 91.83 85.7 16.88 O.3 173 C4173 0
20656 C 90.28 83.85 18 C.3 173 C4173 0
20657 H 89.62 83.24 17.69 H 173 C4173 0
20658 H 90.84 84.1 17.28 H 173 C4173 0
20659 H 90.79 83.44 18.68 H 173 C4173 0
20660 C 86.52 86.17 15.74 C.3 173 C4173 0
20661 C 87.49 85.22 15.38 C.3 173 C4173 0
20662 H 85.95 86.33 14.99 H 173 C4173 0
20663 H 88.08 85.6 14.74 H 173 C4173 0
20664 H 87.06 84.46 15.01 H 173 C4173 0
20665 C1 88.28 84.81 16.64 C.3 173 C4173 0
20666 O2 88.49 83.62 16.87 O.3 173 C4173 0
20667 O3 88.76 85.76 17.48 O.3 173 C4173 0
20668 C 87.21 87.48 16.16 C.3 173 C4173 0
20669 H 86.55 88.12 16.4 H 173 C4173 0
20670 H 87.77 87.31 16.91 H 173 C4173 0
20671 H 87.73 87.81 15.44 H 173 C4173 0
20672 C 83.45 85.43 18.66 C.3 173 C4173 0
20673 C 84.42 86.4 18.91 C.3 173 C4173 0
20674 H 82.88 85.34 19.42 H 173 C4173 0
20675 H 85.01 86.1 19.59 H 173 C4173 0
20676 H 84 87.21 19.2 H 173 C4173 0
20677 C1 85.22 86.68 17.62 C.3 173 C4173 0
20678 O2 85.42 87.83 17.26 O.3 173 C4173 0
20679 O3 85.69 85.64 16.89 O.3 173 C4173 0
20680 C 84.14 84.08 18.39 C.3 173 C4173 0
20681 H 83.48 83.41 18.22 H 173 C4173 0
20682 H 84.71 84.16 17.63 H 173 C4173 0
20683 H 84.66 83.83 19.14 H 173 C4173 0
20684 C 80.38 85.84 15.67 C.3 173 C4173 0
20685 C 81.35 84.84 15.54 C.3 173 C4173 0
20686 H 79.82 85.84 14.91 H 173 C4173 0
20687 H 81.94 85.07 14.83 H 173 C4173 0
20688 H 80.93 84.01 15.34 H 173 C4173 0
20689 C1 82.15 84.71 16.85 C.3 173 C4173 0
20690 O2 82.36 83.6 17.34 O.3 173 C4173 0
20691 O3 82.63 85.83 17.46 O.3 173 C4173 0
20692 C 81.07 87.21 15.8 C.3 173 C4173 0
20693 H 80.41 87.89 15.9 H 173 C4173 0
20694 H 81.64 87.21 16.56 H 173 C4173 0
20695 H 81.59 87.38 15.02 H 173 C4173 0
20696 C 77.31 85.76 18.69 C.3 173 C4173 0
20697 C 78.28 86.77 18.72 C.3 173 C4173 0
20698 H 76.75 85.84 19.45 H 173 C4173 0
20699 H 78.88 86.62 19.45 H 173 C4173 0
20700 H 77.86 87.61 18.82 H 173 C4173 0
20701 C1 79.08 86.75 17.4 C.3 173 C4173 0
20702 O2 79.29 87.8 16.79 O.3 173 C4173 0
20703 O3 79.56 85.57 16.91 O.3 173 C4173 0
20704 C 78.01 84.38 18.72 C.3 173 C4173 0
20705 H 77.35 83.7 18.7 H 173 C4173 0
20706 H 78.57 84.3 17.96 H 173 C4173 0
20707 H 78.52 84.3 19.51 H 173 C4173 0
20708 C 74.25 85.51 15.68 C.3 173 C4173 0
20709 C 75.22 84.5 15.77 C.3 173 C4173 0
20710 H 73.68 85.34 14.94 H 173 C4173 0
20711 H 75.81 84.56 15.03 H 173 C4173 0
20712 H 74.79 83.65 15.76 H 173 C4173 0
20713 C1 76.01 84.66 17.08 C.3 173 C4173 0
20714 O2 76.22 83.69 17.8 O.3 173 C4173 0
20715 O3 76.49 85.89 17.43 O.3 173 C4173 0
20716 C 74.94 86.87 15.51 C.3 173 C4173 0
20717 H 74.28 87.55 15.45 H 173 C4173 0
20718 H 75.5 87.04 16.25 H 173 C4173 0
20719 H 75.46 86.86 14.71 H 173 C4173 0
20720 C 71.18 86.09 18.65 C.3 173 C4173 0
20721 C 72.15 87.08 18.45 C.3 173 C4173 0
20722 H 70.61 86.34 19.37 H 173 C4173 0
20723 H 72.74 87.1 19.19 H 173 C4173 0
20724 H 71.73 87.93 18.36 H 173 C4173 0
20725 C1 72.95 86.77 17.17 C.3 173 C4173 0
20726 O2 73.15 87.66 16.34 O.3 173 C4173 0
20727 O3 73.42 85.52 16.95 O.3 173 C4173 0
20728 C 71.87 84.75 18.97 C.3 173 C4173 0
20729 H 71.21 84.08 19.11 H 173 C4173 0
20730 H 72.44 84.51 18.25 H 173 C4173 0
20731 H 72.39 84.85 19.76 H 173 C4173 0
20732 C 68.11 85.18 15.77 C.3 173 C4173 0
20733 C 69.08 84.22 16.07 C.3 173 C4173 0
20734 H 67.55 84.85 15.08 H 173 C4173 0
20735 H 69.67 84.12 15.33 H 173 C4173 0
20736 H 68.66 83.39 16.25 H 173 C4173 0
20737 C1 69.88 84.67 17.31 C.3 173 C4173 0
20738 O2 70.09 83.88 18.23 O.3 173 C4173 0
20739 O3 70.36 85.94 17.39 O.3 173 C4173 0
20740 C 68.8 86.47 15.29 C.3 173 C4173 0
20741 H 68.14 87.13 15.09 H 173 C4173 0
20742 H 69.37 86.8 15.98 H 173 C4173 0
20743 H 69.32 86.29 14.52 H 173 C4173 0
20744 C 65.04 86.4 18.53 C.3 173 C4173 0
20745 C 66.01 87.33 18.12 C.3 173 C4173 0
20746 H 64.48 86.81 19.18 H 173 C4173 0
20747 H 66.6 87.51 18.84 H 173 C4173 0
20748 H 65.59 88.13 17.85 H 173 C4173 0
20749 C1 66.81 86.75 16.94 C.3 173 C4173 0
20750 O2 67.02 87.43 15.94 O.3 173 C4173 0
20751 O3 67.29 85.47 17 O.3 173 C4173 0
20752 C 65.74 85.17 19.14 C.3 173 C4173 0
20753 H 65.08 84.55 19.42 H 173 C4173 0
20754 H 66.3 84.77 18.49 H 173 C4173 0
20755 H 66.25 85.44 19.89 H 173 C4173 0
20756 C 61.98 84.89 15.92 C.3 173 C4173 0
20757 C 62.95 84.01 16.43 C.3 173 C4173 0
20758 H 61.41 84.41 15.32 H 173 C4173 0
20759 H 63.54 83.75 15.73 H 173 C4173 0
20760 H 62.52 83.24 16.79 H 173 C4173 0
20761 C1 63.74 84.72 17.54 C.3 173 C4173 0
20762 O2 63.95 84.15 18.61 O.3 173 C4173 0
20763 O3 64.22 85.98 17.34 O.3 173 C4173 0
20764 C 62.67 86.04 15.17 C.3 173 C4173 0
20765 H 62.01 86.63 14.83 H 173 C4173 0
20766 H 63.23 86.51 15.77 H 173 C4173 0
20767 H 63.19 85.69 14.46 H 173 C4173 0
20768 C 58.91 86.68 18.34 C.3 173 C4173 0
20769 C 59.88 87.49 17.74 C.3 173 C4173 0
20770 H 58.34 87.22 18.89 H 173 C4173 0
20771 H 60.47 87.83 18.41 H 173 C4173 0
20772 H 59.46 88.22 17.3 H 173 C4173 0
20773 C1 60.68 86.67 16.72 C.3 173 C4173 0
20774 O2 60.88 87.12 15.59 O.3 173 C4173 0
20775 O3 61.15 85.44 17.06 O.3 173 C4173 0
20776 C 59.6 85.62 19.21 C.3 173 C4173 0
20777 H 58.94 85.07 19.62 H 173 C4173 0
20778 H 60.17 85.08 18.67 H 173 C4173 0
20779 H 60.12 86.04 19.89 H 173 C4173 0
20780 C 55.84 84.63 16.13 C.3 173 C4173 0
20781 C 56.81 83.89 16.82 C.3 173 C4173 0
20782 H 55.27 84.04 15.65 H 173 C4173 0
20783 H 57.4 83.48 16.2 H 173 C4173 0
20784 H 56.39 83.22 17.34 H 173 C4173 0
20785 C1 57.61 84.82 17.75 C.3 173 C4173 0
20786 O2 57.81 84.5 18.92 O.3 173 C4173 0
20787 O3 58.09 86.01 17.27 O.3 173 C4173 0
20788 C 56.53 85.59 15.15 C.3 173 C4173 0
20789 H 55.87 86.1 14.69 H 173 C4173 0
20790 H 57.1 86.18 15.63 H 173 C4173 0
20791 H 57.05 85.1 14.53 H 173 C4173 0
20792 C 52.77 86.92 18.1 C.3 173 C4173 0
20793 C 53.74 87.58 17.34 C.3 173 C4173 0
20794 H 52.21 87.56 18.52 H 173 C4173 0
20795 H 54.33 88.05 17.91 H 173 C4173 0
20796 H 53.32 88.19 16.75 H 173 C4173 0
20797 C1 54.54 86.54 16.52 C.3 173 C4173 0
20798 O2 54.75 86.73 15.32 O.3 173 C4173 0
20799 O3 55.02 85.42 17.12 O.3 173 C4173 0
20800 C 53.46 86.07 19.19 C.3 173 C4173 0
20801 H 52.81 85.62 19.7 H 173 C4173 0
20802 H 54.03 85.43 18.77 H 173 C4173 0
20803 H 53.98 86.63 19.75 H 173 C4173 0
20804 C 49.71 84.43 16.4 C.3 173 C4173 0
20805 C 50.68 83.85 17.23 C.3 173 C4173 0
20806 H 49.14 83.74 16.06 H 173 C4173 0
20807 H 51.27 83.32 16.71 H 173 C4173 0
20808 H 50.25 83.31 17.89 H 173 C4173 0
20809 C1 51.47 84.97 17.93 C.3 173 C4173 0
20810 O2 51.68 84.92 19.14 O.3 173 C4173 0
20811 O3 51.95 86.02 17.21 O.3 173 C4173 0
20812 C 50.4 85.15 15.23 C.3 173 C4173 0
20813 H 49.74 85.54 14.66 H 173 C4173 0
20814 H 50.96 85.83 15.57 H 173 C4173 0
20815 H 50.91 84.53 14.73 H 173 C4173 0
20816 C 46.64 87.09 17.82 C.3 173 C4173 0
20817 C 47.61 87.57 16.93 C.3 173 C4173 0
20818 H 46.07 87.81 18.08 H 173 C4173 0
20819 H 48.2 88.15 17.38 H 173 C4173 0
20820 H 47.19 88.03 16.22 H 173 C4173 0
20821 C1 48.41 86.38 16.36 C.3 173 C4173 0
20822 O2 48.61 86.3 15.15 O.3 173 C4173 0
20823 O3 48.88 85.41 17.19 O.3 173 C4173 0
20824 C 47.33 86.5 19.06 C.3 173 C4173 0
20825 H 46.67 86.18 19.66 H 173 C4173 0
20826 H 47.9 85.78 18.8 H 173 C4173 0
20827 H 47.85 87.17 19.48 H 173 C4173 0
20828 C 43.57 84.29 16.7 C.3 173 C4173 0
20829 C 44.54 83.91 17.64 C.3 173 C4173 0
20830 H 43.01 83.54 16.52 H 173 C4173 0
20831 H 45.13 83.28 17.25 H 173 C4173 0
20832 H 44.12 83.53 18.4 H 173 C4173 0
20833 C1 45.34 85.16 18.08 C.3 173 C4173 0
20834 O2 45.54 85.37 19.27 O.3 173 C4173 0
20835 O3 45.82 86.02 17.14 O.3 173 C4173 0
20836 C 44.26 84.74 15.4 C.3 173 C4173 0
20837 H 43.6 84.99 14.77 H 173 C4173 0
20838 H 44.83 85.48 15.58 H 173 C4173 0
20839 H 44.78 84.02 15.05 H 173 C4173 0
20840 C 40.5 87.2 17.5 C.3 173 C4173 0
20841 C 41.47 87.46 16.53 C.3 173 C4173 0
20842 H 39.94 87.95 17.6 H 173 C4173 0
20843 H 42.06 88.14 16.84 H 173 C4173 0
20844 H 41.05 87.76 15.73 H 173 C4173 0
20845 C1 42.27 86.18 16.23 C.3 173 C4173 0
20846 O2 42.48 85.84 15.07 O.3 173 C4173 0
20847 O3 42.75 85.42 17.26 O.3 173 C4173 0
20848 C 41.19 86.89 18.84 C.3 173 C4173 0
20849 H 40.54 86.71 19.5 H 173 C4173 0
20850 H 41.76 86.14 18.74 H 173 C4173 0
20851 H 41.71 87.64 19.11 H 173 C4173 0
20852 C 37.44 84.22 17.03 C.3 173 C4173 0
20853 C 38.41 84.06 18.03 C.3 173 C4173 0
20854 H 36.87 83.45 17.02 H 173 C4173 0
20855 H 39 83.35 17.79 H 173 C4173 0
20856 H 37.98 83.85 18.85 H 173 C4173 0
20857 C1 39.2 85.37 18.18 C.3 173 C4173 0
20858 O2 39.41 85.84 19.3 O.3 173 C4173 0
20859 O3 39.68 86.01 17.08 O.3 173 C4173 0
20860 C 38.13 84.37 15.66 C.3 173 C4173 0
20861 H 37.47 84.48 14.99 H 173 C4173 0
20862 H 38.69 85.13 15.68 H 173 C4173 0
20863 H 38.64 83.59 15.48 H 173 C4173 0
20864 C 34.37 87.23 17.17 C.3 173 C4173 0
20865 C 35.34 87.28 16.16 C.3 173 C4173 0
20866 H 33.8 87.99 17.1 H 173 C4173 0
20867 H 35.93 88 16.32 H 173 C4173 0
20868 H 34.91 87.39 15.32 H 173 C4173 0
20869 C1 36.14 85.96 16.15 C.3 173 C4173 0
20870 O2 36.34 85.37 15.09 O.3 173 C4173 0
20871 O3 36.61 85.45 17.32 O.3 173 C4173 0
20872 C 35.06 87.23 18.54 C.3 173 C4173 0
20873 H 34.4 87.2 19.23 H 173 C4173 0
20874 H 35.62 86.47 18.61 H 173 C4173 0
20875 H 35.58 88.02 18.64 H 173 C4173 0
20876 C 31.3 84.22 17.37 C.3 173 C4173 0
20877 C 32.27 84.29 18.37 C.3 173 C4173 0
20878 H 30.73 83.47 17.52 H 173 C4173 0
20879 H 32.86 83.54 18.29 H 173 C4173 0
20880 H 31.85 84.26 19.22 H 173 C4173 0
20881 C1 33.07 85.6 18.23 C.3 173 C4173 0
20882 O2 33.27 86.3 19.22 O.3 173 C4173 0
20883 O3 33.54 85.97 17.02 O.3 173 C4173 0
20884 C 31.99 84.07 16 C.3 173 C4173 0
20885 H 31.33 84.02 15.31 H 173 C4173 0
20886 H 32.56 84.82 15.84 H 173 C4173 0
20887 H 32.51 83.27 15.99 H 173 C4173 0
20888 C 28.23 87.19 16.84 C.3 173 C4173 0
20889 C 29.2 87.02 15.84 C.3 173 C4173 0
20890 H 27.67 87.92 16.6 H 173 C4173 0
20891 H 29.79 87.76 15.84 H 173 C4173 0
20892 H 28.78 86.94 15 H 173 C4173 0
20893 C1 30 85.73 16.13 C.3 173 C4173 0
20894 O2 30.21 84.92 15.22 O.3 173 C4173 0
20895 O3 30.48 85.49 17.38 O.3 173 C4173 0
20896 C 28.92 87.49 18.18 C.3 173 C4173 0
20897 H 28.27 87.61 18.85 H 173 C4173 0
20898 H 29.49 86.77 18.41 H 173 C4173 0
20899 H 29.44 88.29 18.1 H 173 C4173 0
20900 C 25.17 84.3 17.69 C.3 173 C4173 0
20901 C 26.14 84.58 18.66 C.3 173 C4173 0
20902 H 24.6 83.6 18.01 H 173 C4173 0
20903 H 26.73 83.84 18.74 H 173 C4173 0
20904 H 25.71 84.75 19.49 H 173 C4173 0
20905 C1 26.93 85.83 18.23 C.3 173 C4173 0
20906 O2 27.14 86.73 19.04 O.3 173 C4173 0
20907 O3 27.41 85.93 16.97 O.3 173 C4173 0
20908 C 25.86 83.85 16.39 C.3 173 C4173 0
20909 H 25.2 83.66 15.73 H 173 C4173 0
20910 H 26.42 84.54 16.08 H 173 C4173 0
20911 H 26.37 83.07 16.56 H 173 C4173 0
20912 C 22.1 87.08 16.52 C.3 173 C4173 0
20913 C 23.07 86.69 15.59 C.3 173 C4173 0
20914 H 21.53 87.74 16.13 H 173 C4173 0
20915 H 23.66 87.41 15.42 H 173 C4173 0
20916 H 22.64 86.43 14.78 H 173 C4173 0
20917 C1 23.87 85.5 16.15 C.3 173 C4173 0
20918 O2 24.07 84.51 15.45 O.3 173 C4173 0
20919 O3 24.34 85.53 17.42 O.3 173 C4173 0
20920 C 22.79 87.67 17.77 C.3 173 C4173 0
20921 H 22.13 87.94 18.4 H 173 C4173 0
20922 H 23.35 87.01 18.15 H 173 C4173 0
20923 H 23.31 88.43 17.51 H 173 C4173 0
20924 C 19.03 84.44 17.99 C.3 173 C4173 0
20925 C 20 84.94 18.87 C.3 173 C4173 0
20926 H 18.46 83.84 18.45 H 173 C4173 0
20927 H 20.59 84.23 19.12 H 173 C4173 0
20928 H 19.58 85.28 19.65 H 173 C4173 0
20929 C1 20.8 86.06 18.18 C.3 173 C4173 0
20930 O2 21 87.12 18.78 O.3 173 C4173 0
20931 O3 21.27 85.88 16.92 O.3 173 C4173 0
20932 C 19.72 83.72 16.82 C.3 173 C4173 0
20933 H 19.06 83.39 16.22 H 173 C4173 0
20934 H 20.29 84.33 16.36 H 173 C4173 0
20935 H 20.24 83 17.16 H 173 C4173 0
20936 C 15.96 86.9 16.24 C.3 173 C4173 0
20937 C 16.93 86.32 15.42 C.3 173 C4173 0
20938 H 15.4 87.46 15.72 H 173 C4173 0
20939 H 17.52 86.99 15.1 H 173 C4173 0
20940 H 16.51 85.89 14.68 H 173 C4173 0
20941 C1 17.73 85.28 16.23 C.3 173 C4173 0
20942 O2 17.94 84.16 15.76 O.3 173 C4173 0
20943 O3 18.21 85.59 17.46 O.3 173 C4173 0
20944 C 16.65 87.75 17.32 C.3 173 C4173 0
20945 H 16 88.15 17.88 H 173 C4173 0
20946 H 17.22 87.2 17.85 H 173 C4173 0
20947 H 17.17 88.43 16.91 H 173 C4173 0
20948 C 12.89 84.65 18.25 C.3 173 C4173 0
20949 C 13.87 85.33 19.01 C.3 173 C4173 0
20950 H 12.33 84.16 18.83 H 173 C4173 0
20951 H 14.45 84.7 19.4 H 173 C4173 0
20952 H 13.44 85.83 19.69 H 173 C4173 0
20953 C1 14.66 86.27 18.09 C.3 173 C4173 0
20954 O2 14.87 87.44 18.43 O.3 173 C4173 0
20955 O3 15.14 85.82 16.9 O.3 173 C4173 0
20956 C 13.59 83.69 17.27 C.3 173 C4173 0
20957 H 12.93 83.23 16.76 H 173 C4173 0
20958 H 14.15 84.18 16.69 H 173 C4173 0
20959 H 14.1 83.06 17.76 H 173 C4173 0
20960 C 9.83 86.67 16 C.3 173 C4173 0
20961 C 10.8 85.91 15.33 C.3 173 C4173 0
20962 H 9.26 87.09 15.37 H 173 C4173 0
20963 H 11.39 86.5 14.87 H 173 C4173 0
20964 H 10.37 85.33 14.71 H 173 C4173 0
20965 C1 11.59 85.08 16.35 C.3 173 C4173 0
20966 O2 11.8 83.88 16.13 O.3 173 C4173 0
20967 O3 12.07 85.66 17.48 O.3 173 C4173 0
20968 C 10.52 87.73 16.87 C.3 173 C4173 0
20969 H 9.86 88.24 17.33 H 173 C4173 0
20970 H 11.08 87.31 17.51 H 173 C4173 0
20971 H 11.04 88.31 16.32 H 173 C4173 0
20972 C 6.76 84.92 18.46 C.3 173 C4173 0
20973 C 7.73 85.74 19.05 C.3 173 C4173 0
20974 H 6.19 84.56 19.14 H 173 C4173 0
20975 H 8.32 85.21 19.57 H 173 C4173 0
20976 H 7.31 86.38 19.6 H 173 C4173 0
20977 C1 8.53 86.46 17.94 C.3 173 C4173 0
20978 O2 8.73 87.67 18.02 O.3 173 C4173 0
20979 O3 9 85.76 16.88 O.3 173 C4173 0
20980 C 7.45 83.76 17.71 C.3 173 C4173 0
20981 H 6.79 83.2 17.32 H 173 C4173 0
20982 H 8.02 84.11 17.04 H 173 C4173 0
20983 H 7.97 83.25 18.33 H 173 C4173 0
20984 H 3.17 85.95 16.49 H 174 C4174 0
20985 C 3.69 86.38 15.82 C.3 174 C4174 0
20986 C 4.66 85.5 15.33 C.3 174 C4174 0
20987 H 3.13 86.66 15.11 H 174 C4174 0
20988 H 5.25 85.97 14.76 H 174 C4174 0
20989 H 4.24 84.8 14.85 H 174 C4174 0
20990 C1 5.46 84.91 16.51 C.3 174 C4174 0
20991 O2 5.67 83.7 16.57 O.3 174 C4174 0
20992 O3 5.94 85.72 17.49 O.3 174 C4174 0
20993 C 4.38 87.62 16.44 C.3 174 C4174 0
20994 H 3.72 88.21 16.77 H 174 C4174 0
20995 H 4.95 87.34 17.15 H 174 C4174 0
20996 H 4.9 88.05 15.77 H 174 C4174 0
20997 C 92.65 86.47 27.3 C.3 175 C4175 0
20998 C 93.62 85.63 26.75 C.3 175 C4175 0
20999 H 92.09 86.8 26.61 H 175 C4175 0
21000 H 94.21 86.14 26.21 H 175 C4175 0
21001 H 93.2 84.96 26.22 H 175 C4175 0
21002 C1 94.42 84.95 27.88 C.3 175 C4175 0
21003 O2 94.63 83.74 27.85 O.3 175 C4175 0
21004 O3 94.9 85.69 28.91 O.3 175 C4175 0
21005 H5 95.42 85.14 29.49 H 175 C4175 0
21006 C 93.34 87.65 28.01 C.3 175 C4175 0
21007 H 92.68 88.23 28.38 H 175 C4175 0
21008 H 93.91 87.33 28.69 H 175 C4175 0
21009 H 93.86 88.14 27.37 H 175 C4175 0
21010 C 89.58 85.11 29.99 C.3 176 C4176 0
21011 C 90.55 86.01 30.45 C.3 176 C4176 0
21012 H 89.02 84.86 30.71 H 176 C4176 0
21013 H 91.15 85.56 31.05 H 176 C4176 0
21014 H 90.13 86.73 30.9 H 176 C4176 0
21015 C1 91.35 86.55 29.25 C.3 176 C4176 0
21016 O2 91.56 87.76 29.15 O.3 176 C4176 0
21017 O3 91.83 85.7 28.31 O.3 176 C4176 0
21018 C 90.28 83.85 29.43 C.3 176 C4176 0
21019 H 89.62 83.24 29.12 H 176 C4176 0
21020 H 90.84 84.1 28.71 H 176 C4176 0
21021 H 90.79 83.44 30.11 H 176 C4176 0
21022 C 86.52 86.17 27.17 C.3 176 C4176 0
21023 C 87.49 85.22 26.81 C.3 176 C4176 0
21024 H 85.95 86.33 26.42 H 176 C4176 0
21025 H 88.08 85.6 26.17 H 176 C4176 0
21026 H 87.06 84.46 26.44 H 176 C4176 0
21027 C1 88.28 84.81 28.07 C.3 176 C4176 0
21028 O2 88.49 83.62 28.3 O.3 176 C4176 0
21029 O3 88.76 85.76 28.91 O.3 176 C4176 0
21030 C 87.21 87.48 27.59 C.3 176 C4176 0
21031 H 86.55 88.12 27.83 H 176 C4176 0
21032 H 87.77 87.31 28.34 H 176 C4176 0
21033 H 87.73 87.81 26.87 H 176 C4176 0
21034 C 83.45 85.43 30.09 C.3 176 C4176 0
21035 C 84.42 86.4 30.34 C.3 176 C4176 0
21036 H 82.88 85.34 30.85 H 176 C4176 0
21037 H 85.01 86.1 31.02 H 176 C4176 0
21038 H 84 87.21 30.63 H 176 C4176 0
21039 C1 85.22 86.68 29.05 C.3 176 C4176 0
21040 O2 85.42 87.83 28.69 O.3 176 C4176 0
21041 O3 85.69 85.64 28.32 O.3 176 C4176 0
21042 C 84.14 84.08 29.82 C.3 176 C4176 0
21043 H 83.48 83.41 29.65 H 176 C4176 0
21044 H 84.71 84.16 29.06 H 176 C4176 0
21045 H 84.66 83.83 30.57 H 176 C4176 0
21046 C 80.38 85.84 27.1 C.3 176 C4176 0
21047 C 81.35 84.84 26.97 C.3 176 C4176 0
21048 H 79.82 85.84 26.34 H 176 C4176 0
21049 H 81.94 85.07 26.26 H 176 C4176 0
21050 H 80.93 84.01 26.77 H 176 C4176 0
21051 C1 82.15 84.71 28.28 C.3 176 C4176 0
21052 O2 82.36 83.6 28.77 O.3 176 C4176 0
21053 O3 82.63 85.83 28.89 O.3 176 C4176 0
21054 C 81.07 87.21 27.23 C.3 176 C4176 0
21055 H 80.41 87.89 27.33 H 176 C4176 0
21056 H 81.64 87.21 27.99 H 176 C4176 0
21057 H 81.59 87.38 26.45 H 176 C4176 0
21058 C 77.31 85.76 30.12 C.3 176 C4176 0
21059 C 78.28 86.77 30.15 C.3 176 C4176 0
21060 H 76.75 85.84 30.88 H 176 C4176 0
21061 H 78.88 86.62 30.88 H 176 C4176 0
21062 H 77.86 87.61 30.25 H 176 C4176 0
21063 C1 79.08 86.75 28.83 C.3 176 C4176 0
21064 O2 79.29 87.8 28.22 O.3 176 C4176 0
21065 O3 79.56 85.57 28.34 O.3 176 C4176 0
21066 C 78.01 84.38 30.15 C.3 176 C4176 0
21067 H 77.35 83.7 30.13 H 176 C4176 0
21068 H 78.57 84.3 29.39 H 176 C4176 0
21069 H 78.52 84.3 30.94 H 176 C4176 0
21070 C 74.25 85.51 27.11 C.3 176 C4176 0
21071 C 75.22 84.5 27.2 C.3 176 C4176 0
21072 H 73.68 85.34 26.37 H 176 C4176 0
21073 H 75.81 84.56 26.46 H 176 C4176 0
21074 H 74.79 83.65 27.19 H 176 C4176 0
21075 C1 76.01 84.66 28.51 C.3 176 C4176 0
21076 O2 76.22 83.69 29.23 O.3 176 C4176 0
21077 O3 76.49 85.89 28.86 O.3 176 C4176 0
21078 C 74.94 86.87 26.94 C.3 176 C4176 0
21079 H 74.28 87.55 26.88 H 176 C4176 0
21080 H 75.5 87.04 27.68 H 176 C4176 0
21081 H 75.46 86.86 26.14 H 176 C4176 0
21082 C 71.18 86.09 30.08 C.3 176 C4176 0
21083 C 72.15 87.08 29.88 C.3 176 C4176 0
21084 H 70.61 86.34 30.8 H 176 C4176 0
21085 H 72.74 87.1 30.62 H 176 C4176 0
21086 H 71.73 87.93 29.79 H 176 C4176 0
21087 C1 72.95 86.77 28.6 C.3 176 C4176 0
21088 O2 73.15 87.66 27.77 O.3 176 C4176 0
21089 O3 73.42 85.52 28.38 O.3 176 C4176 0
21090 C 71.87 84.75 30.4 C.3 176 C4176 0
21091 H 71.21 84.08 30.54 H 176 C4176 0
21092 H 72.44 84.51 29.68 H 176 C4176 0
21093 H 72.39 84.85 31.19 H 176 C4176 0
21094 C 68.11 85.18 27.2 C.3 176 C4176 0
21095 C 69.08 84.22 27.5 C.3 176 C4176 0
21096 H 67.55 84.85 26.51 H 176 C4176 0
21097 H 69.67 84.12 26.76 H 176 C4176 0
21098 H 68.66 83.39 27.68 H 176 C4176 0
21099 C1 69.88 84.67 28.74 C.3 176 C4176 0
21100 O2 70.09 83.88 29.66 O.3 176 C4176 0
21101 O3 70.36 85.94 28.82 O.3 176 C4176 0
21102 C 68.8 86.47 26.72 C.3 176 C4176 0
21103 H 68.14 87.13 26.52 H 176 C4176 0
21104 H 69.37 86.8 27.41 H 176 C4176 0
21105 H 69.32 86.29 25.95 H 176 C4176 0
21106 C 65.04 86.4 29.96 C.3 176 C4176 0
21107 C 66.01 87.33 29.55 C.3 176 C4176 0
21108 H 64.48 86.81 30.61 H 176 C4176 0
21109 H 66.6 87.51 30.27 H 176 C4176 0
21110 H 65.59 88.13 29.28 H 176 C4176 0
21111 C1 66.81 86.75 28.37 C.3 176 C4176 0
21112 O2 67.02 87.43 27.37 O.3 176 C4176 0
21113 O3 67.29 85.47 28.43 O.3 176 C4176 0
21114 C 65.74 85.17 30.57 C.3 176 C4176 0
21115 H 65.08 84.55 30.85 H 176 C4176 0
21116 H 66.3 84.77 29.92 H 176 C4176 0
21117 H 66.25 85.44 31.32 H 176 C4176 0
21118 C 61.98 84.89 27.35 C.3 176 C4176 0
21119 C 62.95 84.01 27.86 C.3 176 C4176 0
21120 H 61.41 84.41 26.75 H 176 C4176 0
21121 H 63.54 83.75 27.16 H 176 C4176 0
21122 H 62.52 83.24 28.22 H 176 C4176 0
21123 C1 63.74 84.72 28.97 C.3 176 C4176 0
21124 O2 63.95 84.15 30.04 O.3 176 C4176 0
21125 O3 64.22 85.98 28.77 O.3 176 C4176 0
21126 C 62.67 86.04 26.6 C.3 176 C4176 0
21127 H 62.01 86.63 26.26 H 176 C4176 0
21128 H 63.23 86.51 27.2 H 176 C4176 0
21129 H 63.19 85.69 25.89 H 176 C4176 0
21130 C 58.91 86.68 29.77 C.3 176 C4176 0
21131 C 59.88 87.49 29.17 C.3 176 C4176 0
21132 H 58.34 87.22 30.32 H 176 C4176 0
21133 H 60.47 87.83 29.84 H 176 C4176 0
21134 H 59.46 88.22 28.73 H 176 C4176 0
21135 C1 60.68 86.67 28.15 C.3 176 C4176 0
21136 O2 60.88 87.12 27.02 O.3 176 C4176 0
21137 O3 61.15 85.44 28.49 O.3 176 C4176 0
21138 C 59.6 85.62 30.64 C.3 176 C4176 0
21139 H 58.94 85.07 31.05 H 176 C4176 0
21140 H 60.17 85.08 30.1 H 176 C4176 0
21141 H 60.12 86.04 31.32 H 176 C4176 0
21142 C 55.84 84.63 27.56 C.3 176 C4176 0
21143 C 56.81 83.89 28.25 C.3 176 C4176 0
21144 H 55.27 84.04 27.08 H 176 C4176 0
21145 H 57.4 83.48 27.63 H 176 C4176 0
21146 H 56.39 83.22 28.77 H 176 C4176 0
21147 C1 57.61 84.82 29.18 C.3 176 C4176 0
21148 O2 57.81 84.5 30.35 O.3 176 C4176 0
21149 O3 58.09 86.01 28.7 O.3 176 C4176 0
21150 C 56.53 85.59 26.58 C.3 176 C4176 0
21151 H 55.87 86.1 26.12 H 176 C4176 0
21152 H 57.1 86.18 27.06 H 176 C4176 0
21153 H 57.05 85.1 25.96 H 176 C4176 0
21154 C 52.77 86.92 29.53 C.3 176 C4176 0
21155 C 53.74 87.58 28.77 C.3 176 C4176 0
21156 H 52.21 87.56 29.95 H 176 C4176 0
21157 H 54.33 88.05 29.34 H 176 C4176 0
21158 H 53.32 88.19 28.18 H 176 C4176 0
21159 C1 54.54 86.54 27.95 C.3 176 C4176 0
21160 O2 54.75 86.73 26.75 O.3 176 C4176 0
21161 O3 55.02 85.42 28.55 O.3 176 C4176 0
21162 C 53.46 86.07 30.62 C.3 176 C4176 0
21163 H 52.81 85.62 31.13 H 176 C4176 0
21164 H 54.03 85.43 30.2 H 176 C4176 0
21165 H 53.98 86.63 31.18 H 176 C4176 0
21166 C 49.71 84.43 27.83 C.3 176 C4176 0
21167 C 50.68 83.85 28.66 C.3 176 C4176 0
21168 H 49.14 83.74 27.49 H 176 C4176 0
21169 H 51.27 83.32 28.14 H 176 C4176 0
21170 H 50.25 83.31 29.32 H 176 C4176 0
21171 C1 51.47 84.97 29.36 C.3 176 C4176 0
21172 O2 51.68 84.92 30.57 O.3 176 C4176 0
21173 O3 51.95 86.02 28.64 O.3 176 C4176 0
21174 C 50.4 85.15 26.66 C.3 176 C4176 0
21175 H 49.74 85.54 26.09 H 176 C4176 0
21176 H 50.96 85.83 27 H 176 C4176 0
21177 H 50.91 84.53 26.16 H 176 C4176 0
21178 C 46.64 87.09 29.25 C.3 176 C4176 0
21179 C 47.61 87.57 28.36 C.3 176 C4176 0
21180 H 46.07 87.81 29.51 H 176 C4176 0
21181 H 48.2 88.15 28.81 H 176 C4176 0
21182 H 47.19 88.03 27.65 H 176 C4176 0
21183 C1 48.41 86.38 27.79 C.3 176 C4176 0
21184 O2 48.61 86.3 26.58 O.3 176 C4176 0
21185 O3 48.88 85.41 28.62 O.3 176 C4176 0
21186 C 47.33 86.5 30.49 C.3 176 C4176 0
21187 H 46.67 86.18 31.09 H 176 C4176 0
21188 H 47.9 85.78 30.23 H 176 C4176 0
21189 H 47.85 87.17 30.91 H 176 C4176 0
21190 C 43.57 84.29 28.13 C.3 176 C4176 0
21191 C 44.54 83.91 29.07 C.3 176 C4176 0
21192 H 43.01 83.54 27.95 H 176 C4176 0
21193 H 45.13 83.28 28.68 H 176 C4176 0
21194 H 44.12 83.53 29.83 H 176 C4176 0
21195 C1 45.34 85.16 29.51 C.3 176 C4176 0
21196 O2 45.54 85.37 30.7 O.3 176 C4176 0
21197 O3 45.82 86.02 28.57 O.3 176 C4176 0
21198 C 44.26 84.74 26.83 C.3 176 C4176 0
21199 H 43.6 84.99 26.2 H 176 C4176 0
21200 H 44.83 85.48 27.01 H 176 C4176 0
21201 H 44.78 84.02 26.48 H 176 C4176 0
21202 C 40.5 87.2 28.93 C.3 176 C4176 0
21203 C 41.47 87.46 27.96 C.3 176 C4176 0
21204 H 39.94 87.95 29.03 H 176 C4176 0
21205 H 42.06 88.14 28.27 H 176 C4176 0
21206 H 41.05 87.76 27.16 H 176 C4176 0
21207 C1 42.27 86.18 27.66 C.3 176 C4176 0
21208 O2 42.48 85.84 26.5 O.3 176 C4176 0
21209 O3 42.75 85.42 28.69 O.3 176 C4176 0
21210 C 41.19 86.89 30.27 C.3 176 C4176 0
21211 H 40.54 86.71 30.93 H 176 C4176 0
21212 H 41.76 86.14 30.17 H 176 C4176 0
21213 H 41.71 87.64 30.54 H 176 C4176 0
21214 C 37.44 84.22 28.46 C.3 176 C4176 0
21215 C 38.41 84.06 29.46 C.3 176 C4176 0
21216 H 36.87 83.45 28.45 H 176 C4176 0
21217 H 39 83.35 29.22 H 176 C4176 0
21218 H 37.98 83.85 30.28 H 176 C4176 0
21219 C1 39.2 85.37 29.61 C.3 176 C4176 0
21220 O2 39.41 85.84 30.73 O.3 176 C4176 0
21221 O3 39.68 86.01 28.51 O.3 176 C4176 0
21222 C 38.13 84.37 27.09 C.3 176 C4176 0
21223 H 37.47 84.48 26.42 H 176 C4176 0
21224 H 38.69 85.13 27.11 H 176 C4176 0
21225 H 38.64 83.59 26.91 H 176 C4176 0
21226 C 34.37 87.23 28.6 C.3 176 C4176 0
21227 C 35.34 87.28 27.59 C.3 176 C4176 0
21228 H 33.8 87.99 28.53 H 176 C4176 0
21229 H 35.93 88 27.75 H 176 C4176 0
21230 H 34.91 87.39 26.75 H 176 C4176 0
21231 C1 36.14 85.96 27.58 C.3 176 C4176 0
21232 O2 36.34 85.37 26.52 O.3 176 C4176 0
21233 O3 36.61 85.45 28.75 O.3 176 C4176 0
21234 C 35.06 87.23 29.97 C.3 176 C4176 0
21235 H 34.4 87.2 30.66 H 176 C4176 0
21236 H 35.62 86.47 30.04 H 176 C4176 0
21237 H 35.58 88.02 30.07 H 176 C4176 0
21238 C 31.3 84.22 28.8 C.3 176 C4176 0
21239 C 32.27 84.29 29.8 C.3 176 C4176 0
21240 H 30.73 83.47 28.95 H 176 C4176 0
21241 H 32.86 83.54 29.72 H 176 C4176 0
21242 H 31.85 84.26 30.65 H 176 C4176 0
21243 C1 33.07 85.6 29.66 C.3 176 C4176 0
21244 O2 33.27 86.3 30.65 O.3 176 C4176 0
21245 O3 33.54 85.97 28.45 O.3 176 C4176 0
21246 C 31.99 84.07 27.43 C.3 176 C4176 0
21247 H 31.33 84.02 26.74 H 176 C4176 0
21248 H 32.56 84.82 27.27 H 176 C4176 0
21249 H 32.51 83.27 27.42 H 176 C4176 0
21250 C 28.23 87.19 28.27 C.3 176 C4176 0
21251 C 29.2 87.02 27.27 C.3 176 C4176 0
21252 H 27.67 87.92 28.03 H 176 C4176 0
21253 H 29.79 87.76 27.27 H 176 C4176 0
21254 H 28.78 86.94 26.43 H 176 C4176 0
21255 C1 30 85.73 27.56 C.3 176 C4176 0
21256 O2 30.21 84.92 26.65 O.3 176 C4176 0
21257 O3 30.48 85.49 28.81 O.3 176 C4176 0
21258 C 28.92 87.49 29.61 C.3 176 C4176 0
21259 H 28.27 87.61 30.28 H 176 C4176 0
21260 H 29.49 86.77 29.84 H 176 C4176 0
21261 H 29.44 88.29 29.53 H 176 C4176 0
21262 C 25.17 84.3 29.12 C.3 176 C4176 0
21263 C 26.14 84.58 30.09 C.3 176 C4176 0
21264 H 24.6 83.6 29.44 H 176 C4176 0
21265 H 26.73 83.84 30.17 H 176 C4176 0
21266 H 25.71 84.75 30.92 H 176 C4176 0
21267 C1 26.93 85.83 29.66 C.3 176 C4176 0
21268 O2 27.14 86.73 30.47 O.3 176 C4176 0
21269 O3 27.41 85.93 28.4 O.3 176 C4176 0
21270 C 25.86 83.85 27.82 C.3 176 C4176 0
21271 H 25.2 83.66 27.16 H 176 C4176 0
21272 H 26.42 84.54 27.51 H 176 C4176 0
21273 H 26.37 83.07 27.99 H 176 C4176 0
21274 C 22.1 87.08 27.95 C.3 176 C4176 0
21275 C 23.07 86.69 27.02 C.3 176 C4176 0
21276 H 21.53 87.74 27.56 H 176 C4176 0
21277 H 23.66 87.41 26.85 H 176 C4176 0
21278 H 22.64 86.43 26.21 H 176 C4176 0
21279 C1 23.87 85.5 27.58 C.3 176 C4176 0
21280 O2 24.07 84.51 26.88 O.3 176 C4176 0
21281 O3 24.34 85.53 28.85 O.3 176 C4176 0
21282 C 22.79 87.67 29.2 C.3 176 C4176 0
21283 H 22.13 87.94 29.83 H 176 C4176 0
21284 H 23.35 87.01 29.58 H 176 C4176 0
21285 H 23.31 88.43 28.94 H 176 C4176 0
21286 C 19.03 84.44 29.42 C.3 176 C4176 0
21287 C 20 84.94 30.3 C.3 176 C4176 0
21288 H 18.46 83.84 29.88 H 176 C4176 0
21289 H 20.59 84.23 30.55 H 176 C4176 0
21290 H 19.58 85.28 31.08 H 176 C4176 0
21291 C1 20.8 86.06 29.61 C.3 176 C4176 0
21292 O2 21 87.12 30.21 O.3 176 C4176 0
21293 O3 21.27 85.88 28.35 O.3 176 C4176 0
21294 C 19.72 83.72 28.25 C.3 176 C4176 0
21295 H 19.06 83.39 27.65 H 176 C4176 0
21296 H 20.29 84.33 27.79 H 176 C4176 0
21297 H 20.24 83 28.59 H 176 C4176 0
21298 C 15.96 86.9 27.67 C.3 176 C4176 0
21299 C 16.93 86.32 26.85 C.3 176 C4176 0
21300 H 15.4 87.46 27.15 H 176 C4176 0
21301 H 17.52 86.99 26.53 H 176 C4176 0
21302 H 16.51 85.89 26.11 H 176 C4176 0
21303 C1 17.73 85.28 27.66 C.3 176 C4176 0
21304 O2 17.94 84.16 27.19 O.3 176 C4176 0
21305 O3 18.21 85.59 28.89 O.3 176 C4176 0
21306 C 16.65 87.75 28.75 C.3 176 C4176 0
21307 H 16 88.15 29.31 H 176 C4176 0
21308 H 17.22 87.2 29.28 H 176 C4176 0
21309 H 17.17 88.43 28.34 H 176 C4176 0
21310 C 12.89 84.65 29.68 C.3 176 C4176 0
21311 C 13.87 85.33 30.44 C.3 176 C4176 0
21312 H 12.33 84.16 30.26 H 176 C4176 0
21313 H 14.45 84.7 30.83 H 176 C4176 0
21314 H 13.44 85.83 31.12 H 176 C4176 0
21315 C1 14.66 86.27 29.52 C.3 176 C4176 0
21316 O2 14.87 87.44 29.86 O.3 176 C4176 0
21317 O3 15.14 85.82 28.33 O.3 176 C4176 0
21318 C 13.59 83.69 28.7 C.3 176 C4176 0
21319 H 12.93 83.23 28.19 H 176 C4176 0
21320 H 14.15 84.18 28.12 H 176 C4176 0
21321 H 14.1 83.06 29.19 H 176 C4176 0
21322 C 9.83 86.67 27.43 C.3 176 C4176 0
21323 C 10.8 85.91 26.76 C.3 176 C4176 0
21324 H 9.26 87.09 26.8 H 176 C4176 0
21325 H 11.39 86.5 26.3 H 176 C4176 0
21326 H 10.37 85.33 26.14 H 176 C4176 0
21327 C1 11.59 85.08 27.78 C.3 176 C4176 0
21328 O2 11.8 83.88 27.56 O.3 176 C4176 0
21329 O3 12.07 85.66 28.91 O.3 176 C4176 0
21330 C 10.52 87.73 28.3 C.3 176 C4176 0
21331 H 9.86 88.24 28.76 H 176 C4176 0
21332 H 11.08 87.31 28.94 H 176 C4176 0
21333 H 11.04 88.31 27.75 H 176 C4176 0
21334 C 6.76 84.92 29.89 C.3 176 C4176 0
21335 C 7.73 85.74 30.48 C.3 176 C4176 0
21336 H 6.19 84.56 30.57 H 176 C4176 0
21337 H 8.32 85.21 31 H 176 C4176 0
21338 H 7.31 86.38 31.03 H 176 C4176 0
21339 C1 8.53 86.46 29.37 C.3 176 C4176 0
21340 O2 8.73 87.67 29.45 O.3 176 C4176 0
21341 O3 9 85.76 28.31 O.3 176 C4176 0
21342 C 7.45 83.76 29.14 C.3 176 C4176 0
21343 H 6.79 83.2 28.75 H 176 C4176 0
21344 H 8.02 84.11 28.47 H 176 C4176 0
21345 H 7.97 83.25 29.76 H 176 C4176 0
21346 H 3.17 85.95 27.92 H 177 C4177 0
21347 C 3.69 86.38 27.25 C.3 177 C4177 0
21348 C 4.66 85.5 26.76 C.3 177 C4177 0
21349 H 3.13 86.66 26.54 H 177 C4177 0
21350 H 5.25 85.97 26.19 H 177 C4177 0
21351 H 4.24 84.8 26.28 H 177 C4177 0
21352 C1 5.46 84.91 27.94 C.3 177 C4177 0
21353 O2 5.67 83.7 28 O.3 177 C4177 0
21354 O3 5.94 85.72 28.92 O.3 177 C4177 0
21355 C 4.38 87.62 27.87 C.3 177 C4177 0
21356 H 3.72 88.21 28.2 H 177 C4177 0
21357 H 4.95 87.34 28.58 H 177 C4177 0
21358 H 4.9 88.05 27.2 H 177 C4177 0
21359 C 92.65 86.47 38.73 C.3 178 C4178 0
21360 C 93.62 85.63 38.18 C.3 178 C4178 0
21361 H 92.09 86.8 38.04 H 178 C4178 0
21362 H 94.21 86.14 37.64 H 178 C4178 0
21363 H 93.2 84.96 37.65 H 178 C4178 0
21364 C1 94.42 84.95 39.31 C.3 178 C4178 0
21365 O2 94.63 83.74 39.28 O.3 178 C4178 0
21366 O3 94.9 85.69 40.34 O.3 178 C4178 0
21367 H5 95.42 85.14 40.92 H 178 C4178 0
21368 C 93.34 87.65 39.44 C.3 178 C4178 0
21369 H 92.68 88.23 39.81 H 178 C4178 0
21370 H 93.91 87.33 40.12 H 178 C4178 0
21371 H 93.86 88.14 38.8 H 178 C4178 0
21372 C 89.58 85.11 41.42 C.3 179 C4179 0
21373 C 90.55 86.01 41.88 C.3 179 C4179 0
21374 H 89.02 84.86 42.14 H 179 C4179 0
21375 H 91.15 85.56 42.48 H 179 C4179 0
21376 H 90.13 86.73 42.33 H 179 C4179 0
21377 C1 91.35 86.55 40.68 C.3 179 C4179 0
21378 O2 91.56 87.76 40.58 O.3 179 C4179 0
21379 O3 91.83 85.7 39.74 O.3 179 C4179 0
21380 C 90.28 83.85 40.86 C.3 179 C4179 0
21381 H 89.62 83.24 40.55 H 179 C4179 0
21382 H 90.84 84.1 40.14 H 179 C4179 0
21383 H 90.79 83.44 41.54 H 179 C4179 0
21384 C 86.52 86.17 38.6 C.3 179 C4179 0
21385 C 87.49 85.22 38.24 C.3 179 C4179 0
21386 H 85.95 86.33 37.85 H 179 C4179 0
21387 H 88.08 85.6 37.6 H 179 C4179 0
21388 H 87.06 84.46 37.87 H 179 C4179 0
21389 C1 88.28 84.81 39.5 C.3 179 C4179 0
21390 O2 88.49 83.62 39.73 O.3 179 C4179 0
21391 O3 88.76 85.76 40.34 O.3 179 C4179 0
21392 C 87.21 87.48 39.02 C.3 179 C4179 0
21393 H 86.55 88.12 39.26 H 179 C4179 0
21394 H 87.77 87.31 39.77 H 179 C4179 0
21395 H 87.73 87.81 38.3 H 179 C4179 0
21396 C 83.45 85.43 41.52 C.3 179 C4179 0
21397 C 84.42 86.4 41.77 C.3 179 C4179 0
21398 H 82.88 85.34 42.28 H 179 C4179 0
21399 H 85.01 86.1 42.45 H 179 C4179 0
21400 H 84 87.21 42.06 H 179 C4179 0
21401 C1 85.22 86.68 40.48 C.3 179 C4179 0
21402 O2 85.42 87.83 40.12 O.3 179 C4179 0
21403 O3 85.69 85.64 39.75 O.3 179 C4179 0
21404 C 84.14 84.08 41.25 C.3 179 C4179 0
21405 H 83.48 83.41 41.08 H 179 C4179 0
21406 H 84.71 84.16 40.49 H 179 C4179 0
21407 H 84.66 83.83 42 H 179 C4179 0
21408 C 80.38 85.84 38.53 C.3 179 C4179 0
21409 C 81.35 84.84 38.4 C.3 179 C4179 0
21410 H 79.82 85.84 37.77 H 179 C4179 0
21411 H 81.94 85.07 37.69 H 179 C4179 0
21412 H 80.93 84.01 38.2 H 179 C4179 0
21413 C1 82.15 84.71 39.71 C.3 179 C4179 0
21414 O2 82.36 83.6 40.2 O.3 179 C4179 0
21415 O3 82.63 85.83 40.32 O.3 179 C4179 0
21416 C 81.07 87.21 38.66 C.3 179 C4179 0
21417 H 80.41 87.89 38.76 H 179 C4179 0
21418 H 81.64 87.21 39.42 H 179 C4179 0
21419 H 81.59 87.38 37.88 H 179 C4179 0
21420 C 77.31 85.76 41.55 C.3 179 C4179 0
21421 C 78.28 86.77 41.58 C.3 179 C4179 0
21422 H 76.75 85.84 42.31 H 179 C4179 0
21423 H 78.88 86.62 42.31 H 179 C4179 0
21424 H 77.86 87.61 41.68 H 179 C4179 0
21425 C1 79.08 86.75 40.26 C.3 179 C4179 0
21426 O2 79.29 87.8 39.65 O.3 179 C4179 0
21427 O3 79.56 85.57 39.77 O.3 179 C4179 0
21428 C 78.01 84.38 41.58 C.3 179 C4179 0
21429 H 77.35 83.7 41.56 H 179 C4179 0
21430 H 78.57 84.3 40.82 H 179 C4179 0
21431 H 78.52 84.3 42.37 H 179 C4179 0
21432 C 74.25 85.51 38.54 C.3 179 C4179 0
21433 C 75.22 84.5 38.63 C.3 179 C4179 0
21434 H 73.68 85.34 37.8 H 179 C4179 0
21435 H 75.81 84.56 37.89 H 179 C4179 0
21436 H 74.79 83.65 38.62 H 179 C4179 0
21437 C1 76.01 84.66 39.94 C.3 179 C4179 0
21438 O2 76.22 83.69 40.66 O.3 179 C4179 0
21439 O3 76.49 85.89 40.29 O.3 179 C4179 0
21440 C 74.94 86.87 38.37 C.3 179 C4179 0
21441 H 74.28 87.55 38.31 H 179 C4179 0
21442 H 75.5 87.04 39.11 H 179 C4179 0
21443 H 75.46 86.86 37.57 H 179 C4179 0
21444 C 71.18 86.09 41.51 C.3 179 C4179 0
21445 C 72.15 87.08 41.31 C.3 179 C4179 0
21446 H 70.61 86.34 42.23 H 179 C4179 0
21447 H 72.74 87.1 42.05 H 179 C4179 0
21448 H 71.73 87.93 41.22 H 179 C4179 0
21449 C1 72.95 86.77 40.03 C.3 179 C4179 0
21450 O2 73.15 87.66 39.2 O.3 179 C4179 0
21451 O3 73.42 85.52 39.81 O.3 179 C4179 0
21452 C 71.87 84.75 41.83 C.3 179 C4179 0
21453 H 71.21 84.08 41.97 H 179 C4179 0
21454 H 72.44 84.51 41.11 H 179 C4179 0
21455 H 72.39 84.85 42.62 H 179 C4179 0
21456 C 68.11 85.18 38.63 C.3 179 C4179 0
21457 C 69.08 84.22 38.93 C.3 179 C4179 0
21458 H 67.55 84.85 37.94 H 179 C4179 0
21459 H 69.67 84.12 38.19 H 179 C4179 0
21460 H 68.66 83.39 39.11 H 179 C4179 0
21461 C1 69.88 84.67 40.17 C.3 179 C4179 0
21462 O2 70.09 83.88 41.09 O.3 179 C4179 0
21463 O3 70.36 85.94 40.25 O.3 179 C4179 0
21464 C 68.8 86.47 38.15 C.3 179 C4179 0
21465 H 68.14 87.13 37.95 H 179 C4179 0
21466 H 69.37 86.8 38.84 H 179 C4179 0
21467 H 69.32 86.29 37.38 H 179 C4179 0
21468 C 65.04 86.4 41.39 C.3 179 C4179 0
21469 C 66.01 87.33 40.98 C.3 179 C4179 0
21470 H 64.48 86.81 42.04 H 179 C4179 0
21471 H 66.6 87.51 41.7 H 179 C4179 0
21472 H 65.59 88.13 40.71 H 179 C4179 0
21473 C1 66.81 86.75 39.8 C.3 179 C4179 0
21474 O2 67.02 87.43 38.8 O.3 179 C4179 0
21475 O3 67.29 85.47 39.86 O.3 179 C4179 0
21476 C 65.74 85.17 42 C.3 179 C4179 0
21477 H 65.08 84.55 42.28 H 179 C4179 0
21478 H 66.3 84.77 41.35 H 179 C4179 0
21479 H 66.25 85.44 42.75 H 179 C4179 0
21480 C 61.98 84.89 38.78 C.3 179 C4179 0
21481 C 62.95 84.01 39.29 C.3 179 C4179 0
21482 H 61.41 84.41 38.18 H 179 C4179 0
21483 H 63.54 83.75 38.59 H 179 C4179 0
21484 H 62.52 83.24 39.65 H 179 C4179 0
21485 C1 63.74 84.72 40.4 C.3 179 C4179 0
21486 O2 63.95 84.15 41.47 O.3 179 C4179 0
21487 O3 64.22 85.98 40.2 O.3 179 C4179 0
21488 C 62.67 86.04 38.03 C.3 179 C4179 0
21489 H 62.01 86.63 37.69 H 179 C4179 0
21490 H 63.23 86.51 38.63 H 179 C4179 0
21491 H 63.19 85.69 37.32 H 179 C4179 0
21492 C 58.91 86.68 41.2 C.3 179 C4179 0
21493 C 59.88 87.49 40.6 C.3 179 C4179 0
21494 H 58.34 87.22 41.75 H 179 C4179 0
21495 H 60.47 87.83 41.27 H 179 C4179 0
21496 H 59.46 88.22 40.16 H 179 C4179 0
21497 C1 60.68 86.67 39.58 C.3 179 C4179 0
21498 O2 60.88 87.12 38.45 O.3 179 C4179 0
21499 O3 61.15 85.44 39.92 O.3 179 C4179 0
21500 C 59.6 85.62 42.07 C.3 179 C4179 0
21501 H 58.94 85.07 42.48 H 179 C4179 0
21502 H 60.17 85.08 41.53 H 179 C4179 0
21503 H 60.12 86.04 42.75 H 179 C4179 0
21504 C 55.84 84.63 38.99 C.3 179 C4179 0
21505 C 56.81 83.89 39.68 C.3 179 C4179 0
21506 H 55.27 84.04 38.51 H 179 C4179 0
21507 H 57.4 83.48 39.06 H 179 C4179 0
21508 H 56.39 83.22 40.2 H 179 C4179 0
21509 C1 57.61 84.82 40.61 C.3 179 C4179 0
21510 O2 57.81 84.5 41.78 O.3 179 C4179 0
21511 O3 58.09 86.01 40.13 O.3 179 C4179 0
21512 C 56.53 85.59 38.01 C.3 179 C4179 0
21513 H 55.87 86.1 37.55 H 179 C4179 0
21514 H 57.1 86.18 38.49 H 179 C4179 0
21515 H 57.05 85.1 37.39 H 179 C4179 0
21516 C 52.77 86.92 40.96 C.3 179 C4179 0
21517 C 53.74 87.58 40.2 C.3 179 C4179 0
21518 H 52.21 87.56 41.38 H 179 C4179 0
21519 H 54.33 88.05 40.77 H 179 C4179 0
21520 H 53.32 88.19 39.61 H 179 C4179 0
21521 C1 54.54 86.54 39.38 C.3 179 C4179 0
21522 O2 54.75 86.73 38.18 O.3 179 C4179 0
21523 O3 55.02 85.42 39.98 O.3 179 C4179 0
21524 C 53.46 86.07 42.05 C.3 179 C4179 0
21525 H 52.81 85.62 42.56 H 179 C4179 0
21526 H 54.03 85.43 41.63 H 179 C4179 0
21527 H 53.98 86.63 42.61 H 179 C4179 0
21528 C 49.71 84.43 39.26 C.3 179 C4179 0
21529 C 50.68 83.85 40.09 C.3 179 C4179 0
21530 H 49.14 83.74 38.92 H 179 C4179 0
21531 H 51.27 83.32 39.57 H 179 C4179 0
21532 H 50.25 83.31 40.75 H 179 C4179 0
21533 C1 51.47 84.97 40.79 C.3 179 C4179 0
21534 O2 51.68 84.92 42 O.3 179 C4179 0
21535 O3 51.95 86.02 40.07 O.3 179 C4179 0
21536 C 50.4 85.15 38.09 C.3 179 C4179 0
21537 H 49.74 85.54 37.52 H 179 C4179 0
21538 H 50.96 85.83 38.43 H 179 C4179 0
21539 H 50.91 84.53 37.59 H 179 C4179 0
21540 C 46.64 87.09 40.68 C.3 179 C4179 0
21541 C 47.61 87.57 39.79 C.3 179 C4179 0
21542 H 46.07 87.81 40.94 H 179 C4179 0
21543 H 48.2 88.15 40.24 H 179 C4179 0
21544 H 47.19 88.03 39.08 H 179 C4179 0
21545 C1 48.41 86.38 39.22 C.3 179 C4179 0
21546 O2 48.61 86.3 38.01 O.3 179 C4179 0
21547 O3 48.88 85.41 40.05 O.3 179 C4179 0
21548 C 47.33 86.5 41.92 C.3 179 C4179 0
21549 H 46.67 86.18 42.52 H 179 C4179 0
21550 H 47.9 85.78 41.66 H 179 C4179 0
21551 H 47.85 87.17 42.34 H 179 C4179 0
21552 C 43.57 84.29 39.56 C.3 179 C4179 0
21553 C 44.54 83.91 40.5 C.3 179 C4179 0
21554 H 43.01 83.54 39.38 H 179 C4179 0
21555 H 45.13 83.28 40.11 H 179 C4179 0
21556 H 44.12 83.53 41.26 H 179 C4179 0
21557 C1 45.34 85.16 40.94 C.3 179 C4179 0
21558 O2 45.54 85.37 42.13 O.3 179 C4179 0
21559 O3 45.82 86.02 40 O.3 179 C4179 0
21560 C 44.26 84.74 38.26 C.3 179 C4179 0
21561 H 43.6 84.99 37.63 H 179 C4179 0
21562 H 44.83 85.48 38.44 H 179 C4179 0
21563 H 44.78 84.02 37.91 H 179 C4179 0
21564 C 40.5 87.2 40.36 C.3 179 C4179 0
21565 C 41.47 87.46 39.39 C.3 179 C4179 0
21566 H 39.94 87.95 40.46 H 179 C4179 0
21567 H 42.06 88.14 39.7 H 179 C4179 0
21568 H 41.05 87.76 38.59 H 179 C4179 0
21569 C1 42.27 86.18 39.09 C.3 179 C4179 0
21570 O2 42.48 85.84 37.93 O.3 179 C4179 0
21571 O3 42.75 85.42 40.12 O.3 179 C4179 0
21572 C 41.19 86.89 41.7 C.3 179 C4179 0
21573 H 40.54 86.71 42.36 H 179 C4179 0
21574 H 41.76 86.14 41.6 H 179 C4179 0
21575 H 41.71 87.64 41.97 H 179 C4179 0
21576 C 37.44 84.22 39.89 C.3 179 C4179 0
21577 C 38.41 84.06 40.89 C.3 179 C4179 0
21578 H 36.87 83.45 39.88 H 179 C4179 0
21579 H 39 83.35 40.65 H 179 C4179 0
21580 H 37.98 83.85 41.71 H 179 C4179 0
21581 C1 39.2 85.37 41.04 C.3 179 C4179 0
21582 O2 39.41 85.84 42.16 O.3 179 C4179 0
21583 O3 39.68 86.01 39.94 O.3 179 C4179 0
21584 C 38.13 84.37 38.52 C.3 179 C4179 0
21585 H 37.47 84.48 37.85 H 179 C4179 0
21586 H 38.69 85.13 38.54 H 179 C4179 0
21587 H 38.64 83.59 38.34 H 179 C4179 0
21588 C 34.37 87.23 40.03 C.3 179 C4179 0
21589 C 35.34 87.28 39.02 C.3 179 C4179 0
21590 H 33.8 87.99 39.96 H 179 C4179 0
21591 H 35.93 88 39.18 H 179 C4179 0
21592 H 34.91 87.39 38.18 H 179 C4179 0
21593 C1 36.14 85.96 39.01 C.3 179 C4179 0
21594 O2 36.34 85.37 37.95 O.3 179 C4179 0
21595 O3 36.61 85.45 40.18 O.3 179 C4179 0
21596 C 35.06 87.23 41.4 C.3 179 C4179 0
21597 H 34.4 87.2 42.09 H 179 C4179 0
21598 H 35.62 86.47 41.47 H 179 C4179 0
21599 H 35.58 88.02 41.5 H 179 C4179 0
21600 C 31.3 84.22 40.23 C.3 179 C4179 0
21601 C 32.27 84.29 41.23 C.3 179 C4179 0
21602 H 30.73 83.47 40.38 H 179 C4179 0
21603 H 32.86 83.54 41.15 H 179 C4179 0
21604 H 31.85 84.26 42.08 H 179 C4179 0
21605 C1 33.07 85.6 41.09 C.3 179 C4179 0
21606 O2 33.27 86.3 42.08 O.3 179 C4179 0
21607 O3 33.54 85.97 39.88 O.3 179 C4179 0
21608 C 31.99 84.07 38.86 C.3 179 C4179 0
21609 H 31.33 84.02 38.17 H 179 C4179 0
21610 H 32.56 84.82 38.7 H 179 C4179 0
21611 H 32.51 83.27 38.85 H 179 C4179 0
21612 C 28.23 87.19 39.7 C.3 179 C4179 0
21613 C 29.2 87.02 38.7 C.3 179 C4179 0
21614 H 27.67 87.92 39.46 H 179 C4179 0
21615 H 29.79 87.76 38.7 H 179 C4179 0
21616 H 28.78 86.94 37.86 H 179 C4179 0
21617 C1 30 85.73 38.99 C.3 179 C4179 0
21618 O2 30.21 84.92 38.08 O.3 179 C4179 0
21619 O3 30.48 85.49 40.24 O.3 179 C4179 0
21620 C 28.92 87.49 41.04 C.3 179 C4179 0
21621 H 28.27 87.61 41.71 H 179 C4179 0
21622 H 29.49 86.77 41.27 H 179 C4179 0
21623 H 29.44 88.29 40.96 H 179 C4179 0
21624 C 25.17 84.3 40.55 C.3 179 C4179 0
21625 C 26.14 84.58 41.52 C.3 179 C4179 0
21626 H 24.6 83.6 40.87 H 179 C4179 0
21627 H 26.73 83.84 41.6 H 179 C4179 0
21628 H 25.71 84.75 42.35 H 179 C4179 0
21629 C1 26.93 85.83 41.09 C.3 179 C4179 0
21630 O2 27.14 86.73 41.9 O.3 179 C4179 0
21631 O3 27.41 85.93 39.83 O.3 179 C4179 0
21632 C 25.86 83.85 39.25 C.3 179 C4179 0
21633 H 25.2 83.66 38.59 H 179 C4179 0
21634 H 26.42 84.54 38.94 H 179 C4179 0
21635 H 26.37 83.07 39.42 H 179 C4179 0
21636 C 22.1 87.08 39.38 C.3 179 C4179 0
21637 C 23.07 86.69 38.45 C.3 179 C4179 0
21638 H 21.53 87.74 38.99 H 179 C4179 0
21639 H 23.66 87.41 38.28 H 179 C4179 0
21640 H 22.64 86.43 37.64 H 179 C4179 0
21641 C1 23.87 85.5 39.01 C.3 179 C4179 0
21642 O2 24.07 84.51 38.31 O.3 179 C4179 0
21643 O3 24.34 85.53 40.28 O.3 179 C4179 0
21644 C 22.79 87.67 40.63 C.3 179 C4179 0
21645 H 22.13 87.94 41.26 H 179 C4179 0
21646 H 23.35 87.01 41.01 H 179 C4179 0
21647 H 23.31 88.43 40.37 H 179 C4179 0
21648 C 19.03 84.44 40.85 C.3 179 C4179 0
21649 C 20 84.94 41.73 C.3 179 C4179 0
21650 H 18.46 83.84 41.31 H 179 C4179 0
21651 H 20.59 84.23 41.98 H 179 C4179 0
21652 H 19.58 85.28 42.51 H 179 C4179 0
21653 C1 20.8 86.06 41.04 C.3 179 C4179 0
21654 O2 21 87.12 41.64 O.3 179 C4179 0
21655 O3 21.27 85.88 39.78 O.3 179 C4179 0
21656 C 19.72 83.72 39.68 C.3 179 C4179 0
21657 H 19.06 83.39 39.08 H 179 C4179 0
21658 H 20.29 84.33 39.22 H 179 C4179 0
21659 H 20.24 83 40.02 H 179 C4179 0
21660 C 15.96 86.9 39.1 C.3 179 C4179 0
21661 C 16.93 86.32 38.28 C.3 179 C4179 0
21662 H 15.4 87.46 38.58 H 179 C4179 0
21663 H 17.52 86.99 37.96 H 179 C4179 0
21664 H 16.51 85.89 37.54 H 179 C4179 0
21665 C1 17.73 85.28 39.09 C.3 179 C4179 0
21666 O2 17.94 84.16 38.62 O.3 179 C4179 0
21667 O3 18.21 85.59 40.32 O.3 179 C4179 0
21668 C 16.65 87.75 40.18 C.3 179 C4179 0
21669 H 16 88.15 40.74 H 179 C4179 0
21670 H 17.22 87.2 40.71 H 179 C4179 0
21671 H 17.17 88.43 39.77 H 179 C4179 0
21672 C 12.89 84.65 41.11 C.3 179 C4179 0
21673 C 13.87 85.33 41.87 C.3 179 C4179 0
21674 H 12.33 84.16 41.69 H 179 C4179 0
21675 H 14.45 84.7 42.26 H 179 C4179 0
21676 H 13.44 85.83 42.55 H 179 C4179 0
21677 C1 14.66 86.27 40.95 C.3 179 C4179 0
21678 O2 14.87 87.44 41.29 O.3 179 C4179 0
21679 O3 15.14 85.82 39.76 O.3 179 C4179 0
21680 C 13.59 83.69 40.13 C.3 179 C4179 0
21681 H 12.93 83.23 39.62 H 179 C4179 0
21682 H 14.15 84.18 39.55 H 179 C4179 0
21683 H 14.1 83.06 40.62 H 179 C4179 0
21684 C 9.83 86.67 38.86 C.3 179 C4179 0
21685 C 10.8 85.91 38.19 C.3 179 C4179 0
21686 H 9.26 87.09 38.23 H 179 C4179 0
21687 H 11.39 86.5 37.73 H 179 C4179 0
21688 H 10.37 85.33 37.57 H 179 C4179 0
21689 C1 11.59 85.08 39.21 C.3 179 C4179 0
21690 O2 11.8 83.88 38.99 O.3 179 C4179 0
21691 O3 12.07 85.66 40.34 O.3 179 C4179 0
21692 C 10.52 87.73 39.73 C.3 179 C4179 0
21693 H 9.86 88.24 40.19 H 179 C4179 0
21694 H 11.08 87.31 40.37 H 179 C4179 0
21695 H 11.04 88.31 39.18 H 179 C4179 0
21696 C 6.76 84.92 41.32 C.3 179 C4179 0
21697 C 7.73 85.74 41.91 C.3 179 C4179 0
21698 H 6.19 84.56 42 H 179 C4179 0
21699 H 8.32 85.21 42.43 H 179 C4179 0
21700 H 7.31 86.38 42.46 H 179 C4179 0
21701 C1 8.53 86.46 40.8 C.3 179 C4179 0
21702 O2 8.73 87.67 40.88 O.3 179 C4179 0
21703 O3 9 85.76 39.74 O.3 179 C4179 0
21704 C 7.45 83.76 40.57 C.3 179 C4179 0
21705 H 6.79 83.2 40.18 H 179 C4179 0
21706 H 8.02 84.11 39.9 H 179 C4179 0
21707 H 7.97 83.25 41.19 H 179 C4179 0
21708 H 3.17 85.95 39.35 H 180 C4180 0
21709 C 3.69 86.38 38.68 C.3 180 C4180 0
21710 C 4.66 85.5 38.19 C.3 180 C4180 0
21711 H 3.13 86.66 37.97 H 180 C4180 0
21712 H 5.25 85.97 37.62 H 180 C4180 0
21713 H 4.24 84.8 37.71 H 180 C4180 0
21714 C1 5.46 84.91 39.37 C.3 180 C4180 0
21715 O2 5.67 83.7 39.43 O.3 180 C4180 0
21716 O3 5.94 85.72 40.35 O.3 180 C4180 0
21717 C 4.38 87.62 39.3 C.3 180 C4180 0
21718 H 3.72 88.21 39.63 H 180 C4180 0
21719 H 4.95 87.34 40.01 H 180 C4180 0
21720 H 4.9 88.05 38.63 H 180 C4180 0
21721 C 92.65 86.47 50.17 C.3 181 C4181 0
21722 C 93.62 85.63 49.62 C.3 181 C4181 0
21723 H 92.09 86.8 49.48 H 181 C4181 0
21724 H 94.21 86.14 49.08 H 181 C4181 0
21725 H 93.2 84.96 49.09 H 181 C4181 0
21726 C1 94.42 84.95 50.75 C.3 181 C4181 0
21727 O2 94.63 83.74 50.72 O.3 181 C4181 0
21728 O3 94.9 85.69 51.78 O.3 181 C4181 0
21729 H5 95.42 85.14 52.36 H 181 C4181 0
21730 C 93.34 87.65 50.88 C.3 181 C4181 0
21731 H 92.68 88.23 51.25 H 181 C4181 0
21732 H 93.91 87.33 51.56 H 181 C4181 0
21733 H 93.86 88.14 50.24 H 181 C4181 0
21734 C 89.58 85.11 52.86 C.3 182 C4182 0
21735 C 90.55 86.01 53.32 C.3 182 C4182 0
21736 H 89.02 84.86 53.58 H 182 C4182 0
21737 H 91.15 85.56 53.92 H 182 C4182 0
21738 H 90.13 86.73 53.77 H 182 C4182 0
21739 C1 91.35 86.55 52.12 C.3 182 C4182 0
21740 O2 91.56 87.76 52.02 O.3 182 C4182 0
21741 O3 91.83 85.7 51.18 O.3 182 C4182 0
21742 C 90.28 83.85 52.3 C.3 182 C4182 0
21743 H 89.62 83.24 51.99 H 182 C4182 0
21744 H 90.84 84.1 51.58 H 182 C4182 0
21745 H 90.79 83.44 52.98 H 182 C4182 0
21746 C 86.52 86.17 50.04 C.3 182 C4182 0
21747 C 87.49 85.22 49.68 C.3 182 C4182 0
21748 H 85.95 86.33 49.29 H 182 C4182 0
21749 H 88.08 85.6 49.04 H 182 C4182 0
21750 H 87.06 84.46 49.31 H 182 C4182 0
21751 C1 88.28 84.81 50.94 C.3 182 C4182 0
21752 O2 88.49 83.62 51.17 O.3 182 C4182 0
21753 O3 88.76 85.76 51.78 O.3 182 C4182 0
21754 C 87.21 87.48 50.46 C.3 182 C4182 0
21755 H 86.55 88.12 50.7 H 182 C4182 0
21756 H 87.77 87.31 51.21 H 182 C4182 0
21757 H 87.73 87.81 49.74 H 182 C4182 0
21758 C 83.45 85.43 52.96 C.3 182 C4182 0
21759 C 84.42 86.4 53.21 C.3 182 C4182 0
21760 H 82.88 85.34 53.72 H 182 C4182 0
21761 H 85.01 86.1 53.89 H 182 C4182 0
21762 H 84 87.21 53.5 H 182 C4182 0
21763 C1 85.22 86.68 51.92 C.3 182 C4182 0
21764 O2 85.42 87.83 51.56 O.3 182 C4182 0
21765 O3 85.69 85.64 51.19 O.3 182 C4182 0
21766 C 84.14 84.08 52.69 C.3 182 C4182 0
21767 H 83.48 83.41 52.52 H 182 C4182 0
21768 H 84.71 84.16 51.93 H 182 C4182 0
21769 H 84.66 83.83 53.44 H 182 C4182 0
21770 C 80.38 85.84 49.97 C.3 182 C4182 0
21771 C 81.35 84.84 49.84 C.3 182 C4182 0
21772 H 79.82 85.84 49.21 H 182 C4182 0
21773 H 81.94 85.07 49.13 H 182 C4182 0
21774 H 80.93 84.01 49.64 H 182 C4182 0
21775 C1 82.15 84.71 51.15 C.3 182 C4182 0
21776 O2 82.36 83.6 51.64 O.3 182 C4182 0
21777 O3 82.63 85.83 51.76 O.3 182 C4182 0
21778 C 81.07 87.21 50.1 C.3 182 C4182 0
21779 H 80.41 87.89 50.2 H 182 C4182 0
21780 H 81.64 87.21 50.86 H 182 C4182 0
21781 H 81.59 87.38 49.32 H 182 C4182 0
21782 C 77.31 85.76 52.99 C.3 182 C4182 0
21783 C 78.28 86.77 53.02 C.3 182 C4182 0
21784 H 76.75 85.84 53.75 H 182 C4182 0
21785 H 78.88 86.62 53.75 H 182 C4182 0
21786 H 77.86 87.61 53.12 H 182 C4182 0
21787 C1 79.08 86.75 51.7 C.3 182 C4182 0
21788 O2 79.29 87.8 51.09 O.3 182 C4182 0
21789 O3 79.56 85.57 51.21 O.3 182 C4182 0
21790 C 78.01 84.38 53.02 C.3 182 C4182 0
21791 H 77.35 83.7 53 H 182 C4182 0
21792 H 78.57 84.3 52.26 H 182 C4182 0
21793 H 78.52 84.3 53.81 H 182 C4182 0
21794 C 74.25 85.51 49.98 C.3 182 C4182 0
21795 C 75.22 84.5 50.07 C.3 182 C4182 0
21796 H 73.68 85.34 49.24 H 182 C4182 0
21797 H 75.81 84.56 49.33 H 182 C4182 0
21798 H 74.79 83.65 50.06 H 182 C4182 0
21799 C1 76.01 84.66 51.38 C.3 182 C4182 0
21800 O2 76.22 83.69 52.1 O.3 182 C4182 0
21801 O3 76.49 85.89 51.73 O.3 182 C4182 0
21802 C 74.94 86.87 49.81 C.3 182 C4182 0
21803 H 74.28 87.55 49.75 H 182 C4182 0
21804 H 75.5 87.04 50.55 H 182 C4182 0
21805 H 75.46 86.86 49.01 H 182 C4182 0
21806 C 71.18 86.09 52.95 C.3 182 C4182 0
21807 C 72.15 87.08 52.75 C.3 182 C4182 0
21808 H 70.61 86.34 53.67 H 182 C4182 0
21809 H 72.74 87.1 53.49 H 182 C4182 0
21810 H 71.73 87.93 52.66 H 182 C4182 0
21811 C1 72.95 86.77 51.47 C.3 182 C4182 0
21812 O2 73.15 87.66 50.64 O.3 182 C4182 0
21813 O3 73.42 85.52 51.25 O.3 182 C4182 0
21814 C 71.87 84.75 53.27 C.3 182 C4182 0
21815 H 71.21 84.08 53.41 H 182 C4182 0
21816 H 72.44 84.51 52.55 H 182 C4182 0
21817 H 72.39 84.85 54.06 H 182 C4182 0
21818 C 68.11 85.18 50.07 C.3 182 C4182 0
21819 C 69.08 84.22 50.37 C.3 182 C4182 0
21820 H 67.55 84.85 49.38 H 182 C4182 0
21821 H 69.67 84.12 49.63 H 182 C4182 0
21822 H 68.66 83.39 50.55 H 182 C4182 0
21823 C1 69.88 84.67 51.61 C.3 182 C4182 0
21824 O2 70.09 83.88 52.53 O.3 182 C4182 0
21825 O3 70.36 85.94 51.69 O.3 182 C4182 0
21826 C 68.8 86.47 49.59 C.3 182 C4182 0
21827 H 68.14 87.13 49.39 H 182 C4182 0
21828 H 69.37 86.8 50.28 H 182 C4182 0
21829 H 69.32 86.29 48.82 H 182 C4182 0
21830 C 65.04 86.4 52.83 C.3 182 C4182 0
21831 C 66.01 87.33 52.42 C.3 182 C4182 0
21832 H 64.48 86.81 53.48 H 182 C4182 0
21833 H 66.6 87.51 53.14 H 182 C4182 0
21834 H 65.59 88.13 52.15 H 182 C4182 0
21835 C1 66.81 86.75 51.24 C.3 182 C4182 0
21836 O2 67.02 87.43 50.24 O.3 182 C4182 0
21837 O3 67.29 85.47 51.3 O.3 182 C4182 0
21838 C 65.74 85.17 53.44 C.3 182 C4182 0
21839 H 65.08 84.55 53.72 H 182 C4182 0
21840 H 66.3 84.77 52.79 H 182 C4182 0
21841 H 66.25 85.44 54.19 H 182 C4182 0
21842 C 61.98 84.89 50.22 C.3 182 C4182 0
21843 C 62.95 84.01 50.73 C.3 182 C4182 0
21844 H 61.41 84.41 49.62 H 182 C4182 0
21845 H 63.54 83.75 50.03 H 182 C4182 0
21846 H 62.52 83.24 51.09 H 182 C4182 0
21847 C1 63.74 84.72 51.84 C.3 182 C4182 0
21848 O2 63.95 84.15 52.91 O.3 182 C4182 0
21849 O3 64.22 85.98 51.64 O.3 182 C4182 0
21850 C 62.67 86.04 49.47 C.3 182 C4182 0
21851 H 62.01 86.63 49.13 H 182 C4182 0
21852 H 63.23 86.51 50.07 H 182 C4182 0
21853 H 63.19 85.69 48.76 H 182 C4182 0
21854 C 58.91 86.68 52.64 C.3 182 C4182 0
21855 C 59.88 87.49 52.04 C.3 182 C4182 0
21856 H 58.34 87.22 53.19 H 182 C4182 0
21857 H 60.47 87.83 52.71 H 182 C4182 0
21858 H 59.46 88.22 51.6 H 182 C4182 0
21859 C1 60.68 86.67 51.02 C.3 182 C4182 0
21860 O2 60.88 87.12 49.89 O.3 182 C4182 0
21861 O3 61.15 85.44 51.36 O.3 182 C4182 0
21862 C 59.6 85.62 53.51 C.3 182 C4182 0
21863 H 58.94 85.07 53.92 H 182 C4182 0
21864 H 60.17 85.08 52.97 H 182 C4182 0
21865 H 60.12 86.04 54.19 H 182 C4182 0
21866 C 55.84 84.63 50.43 C.3 182 C4182 0
21867 C 56.81 83.89 51.12 C.3 182 C4182 0
21868 H 55.27 84.04 49.95 H 182 C4182 0
21869 H 57.4 83.48 50.5 H 182 C4182 0
21870 H 56.39 83.22 51.64 H 182 C4182 0
21871 C1 57.61 84.82 52.05 C.3 182 C4182 0
21872 O2 57.81 84.5 53.22 O.3 182 C4182 0
21873 O3 58.09 86.01 51.57 O.3 182 C4182 0
21874 C 56.53 85.59 49.45 C.3 182 C4182 0
21875 H 55.87 86.1 48.99 H 182 C4182 0
21876 H 57.1 86.18 49.93 H 182 C4182 0
21877 H 57.05 85.1 48.83 H 182 C4182 0
21878 C 52.77 86.92 52.4 C.3 182 C4182 0
21879 C 53.74 87.58 51.64 C.3 182 C4182 0
21880 H 52.21 87.56 52.82 H 182 C4182 0
21881 H 54.33 88.05 52.21 H 182 C4182 0
21882 H 53.32 88.19 51.05 H 182 C4182 0
21883 C1 54.54 86.54 50.82 C.3 182 C4182 0
21884 O2 54.75 86.73 49.62 O.3 182 C4182 0
21885 O3 55.02 85.42 51.42 O.3 182 C4182 0
21886 C 53.46 86.07 53.49 C.3 182 C4182 0
21887 H 52.81 85.62 54 H 182 C4182 0
21888 H 54.03 85.43 53.07 H 182 C4182 0
21889 H 53.98 86.63 54.05 H 182 C4182 0
21890 C 49.71 84.43 50.7 C.3 182 C4182 0
21891 C 50.68 83.85 51.53 C.3 182 C4182 0
21892 H 49.14 83.74 50.36 H 182 C4182 0
21893 H 51.27 83.32 51.01 H 182 C4182 0
21894 H 50.25 83.31 52.19 H 182 C4182 0
21895 C1 51.47 84.97 52.23 C.3 182 C4182 0
21896 O2 51.68 84.92 53.44 O.3 182 C4182 0
21897 O3 51.95 86.02 51.51 O.3 182 C4182 0
21898 C 50.4 85.15 49.53 C.3 182 C4182 0
21899 H 49.74 85.54 48.96 H 182 C4182 0
21900 H 50.96 85.83 49.87 H 182 C4182 0
21901 H 50.91 84.53 49.03 H 182 C4182 0
21902 C 46.64 87.09 52.12 C.3 182 C4182 0
21903 C 47.61 87.57 51.23 C.3 182 C4182 0
21904 H 46.07 87.81 52.38 H 182 C4182 0
21905 H 48.2 88.15 51.68 H 182 C4182 0
21906 H 47.19 88.03 50.52 H 182 C4182 0
21907 C1 48.41 86.38 50.66 C.3 182 C4182 0
21908 O2 48.61 86.3 49.45 O.3 182 C4182 0
21909 O3 48.88 85.41 51.49 O.3 182 C4182 0
21910 C 47.33 86.5 53.36 C.3 182 C4182 0
21911 H 46.67 86.18 53.96 H 182 C4182 0
21912 H 47.9 85.78 53.1 H 182 C4182 0
21913 H 47.85 87.17 53.78 H 182 C4182 0
21914 C 43.57 84.29 51 C.3 182 C4182 0
21915 C 44.54 83.91 51.94 C.3 182 C4182 0
21916 H 43.01 83.54 50.82 H 182 C4182 0
21917 H 45.13 83.28 51.55 H 182 C4182 0
21918 H 44.12 83.53 52.7 H 182 C4182 0
21919 C1 45.34 85.16 52.38 C.3 182 C4182 0
21920 O2 45.54 85.37 53.57 O.3 182 C4182 0
21921 O3 45.82 86.02 51.44 O.3 182 C4182 0
21922 C 44.26 84.74 49.7 C.3 182 C4182 0
21923 H 43.6 84.99 49.07 H 182 C4182 0
21924 H 44.83 85.48 49.88 H 182 C4182 0
21925 H 44.78 84.02 49.35 H 182 C4182 0
21926 C 40.5 87.2 51.8 C.3 182 C4182 0
21927 C 41.47 87.46 50.83 C.3 182 C4182 0
21928 H 39.94 87.95 51.9 H 182 C4182 0
21929 H 42.06 88.14 51.14 H 182 C4182 0
21930 H 41.05 87.76 50.03 H 182 C4182 0
21931 C1 42.27 86.18 50.53 C.3 182 C4182 0
21932 O2 42.48 85.84 49.37 O.3 182 C4182 0
21933 O3 42.75 85.42 51.56 O.3 182 C4182 0
21934 C 41.19 86.89 53.14 C.3 182 C4182 0
21935 H 40.54 86.71 53.8 H 182 C4182 0
21936 H 41.76 86.14 53.04 H 182 C4182 0
21937 H 41.71 87.64 53.41 H 182 C4182 0
21938 C 37.44 84.22 51.33 C.3 182 C4182 0
21939 C 38.41 84.06 52.33 C.3 182 C4182 0
21940 H 36.87 83.45 51.32 H 182 C4182 0
21941 H 39 83.35 52.09 H 182 C4182 0
21942 H 37.98 83.85 53.15 H 182 C4182 0
21943 C1 39.2 85.37 52.48 C.3 182 C4182 0
21944 O2 39.41 85.84 53.6 O.3 182 C4182 0
21945 O3 39.68 86.01 51.38 O.3 182 C4182 0
21946 C 38.13 84.37 49.96 C.3 182 C4182 0
21947 H 37.47 84.48 49.29 H 182 C4182 0
21948 H 38.69 85.13 49.98 H 182 C4182 0
21949 H 38.64 83.59 49.78 H 182 C4182 0
21950 C 34.37 87.23 51.47 C.3 182 C4182 0
21951 C 35.34 87.28 50.46 C.3 182 C4182 0
21952 H 33.8 87.99 51.4 H 182 C4182 0
21953 H 35.93 88 50.62 H 182 C4182 0
21954 H 34.91 87.39 49.62 H 182 C4182 0
21955 C1 36.14 85.96 50.45 C.3 182 C4182 0
21956 O2 36.34 85.37 49.39 O.3 182 C4182 0
21957 O3 36.61 85.45 51.62 O.3 182 C4182 0
21958 C 35.06 87.23 52.84 C.3 182 C4182 0
21959 H 34.4 87.2 53.53 H 182 C4182 0
21960 H 35.62 86.47 52.91 H 182 C4182 0
21961 H 35.58 88.02 52.94 H 182 C4182 0
21962 C 31.3 84.22 51.67 C.3 182 C4182 0
21963 C 32.27 84.29 52.67 C.3 182 C4182 0
21964 H 30.73 83.47 51.82 H 182 C4182 0
21965 H 32.86 83.54 52.59 H 182 C4182 0
21966 H 31.85 84.26 53.52 H 182 C4182 0
21967 C1 33.07 85.6 52.53 C.3 182 C4182 0
21968 O2 33.27 86.3 53.52 O.3 182 C4182 0
21969 O3 33.54 85.97 51.32 O.3 182 C4182 0
21970 C 31.99 84.07 50.3 C.3 182 C4182 0
21971 H 31.33 84.02 49.61 H 182 C4182 0
21972 H 32.56 84.82 50.14 H 182 C4182 0
21973 H 32.51 83.27 50.29 H 182 C4182 0
21974 C 28.23 87.19 51.14 C.3 182 C4182 0
21975 C 29.2 87.02 50.14 C.3 182 C4182 0
21976 H 27.67 87.92 50.9 H 182 C4182 0
21977 H 29.79 87.76 50.14 H 182 C4182 0
21978 H 28.78 86.94 49.3 H 182 C4182 0
21979 C1 30 85.73 50.43 C.3 182 C4182 0
21980 O2 30.21 84.92 49.52 O.3 182 C4182 0
21981 O3 30.48 85.49 51.68 O.3 182 C4182 0
21982 C 28.92 87.49 52.48 C.3 182 C4182 0
21983 H 28.27 87.61 53.15 H 182 C4182 0
21984 H 29.49 86.77 52.71 H 182 C4182 0
21985 H 29.44 88.29 52.4 H 182 C4182 0
21986 C 25.17 84.3 51.99 C.3 182 C4182 0
21987 C 26.14 84.58 52.96 C.3 182 C4182 0
21988 H 24.6 83.6 52.31 H 182 C4182 0
21989 H 26.73 83.84 53.04 H 182 C4182 0
21990 H 25.71 84.75 53.79 H 182 C4182 0
21991 C1 26.93 85.83 52.53 C.3 182 C4182 0
21992 O2 27.14 86.73 53.34 O.3 182 C4182 0
21993 O3 27.41 85.93 51.27 O.3 182 C4182 0
21994 C 25.86 83.85 50.69 C.3 182 C4182 0
21995 H 25.2 83.66 50.03 H 182 C4182 0
21996 H 26.42 84.54 50.38 H 182 C4182 0
21997 H 26.37 83.07 50.86 H 182 C4182 0
21998 C 22.1 87.08 50.82 C.3 182 C4182 0
21999 C 23.07 86.69 49.89 C.3 182 C4182 0
22000 H 21.53 87.74 50.43 H 182 C4182 0
22001 H 23.66 87.41 49.72 H 182 C4182 0
22002 H 22.64 86.43 49.08 H 182 C4182 0
22003 C1 23.87 85.5 50.45 C.3 182 C4182 0
22004 O2 24.07 84.51 49.75 O.3 182 C4182 0
22005 O3 24.34 85.53 51.72 O.3 182 C4182 0
22006 C 22.79 87.67 52.07 C.3 182 C4182 0
22007 H 22.13 87.94 52.7 H 182 C4182 0
22008 H 23.35 87.01 52.45 H 182 C4182 0
22009 H 23.31 88.43 51.81 H 182 C4182 0
22010 C 19.03 84.44 52.29 C.3 182 C4182 0
22011 C 20 84.94 53.17 C.3 182 C4182 0
22012 H 18.46 83.84 52.75 H 182 C4182 0
22013 H 20.59 84.23 53.42 H 182 C4182 0
22014 H 19.58 85.28 53.95 H 182 C4182 0
22015 C1 20.8 86.06 52.48 C.3 182 C4182 0
22016 O2 21 87.12 53.08 O.3 182 C4182 0
22017 O3 21.27 85.88 51.22 O.3 182 C4182 0
22018 C 19.72 83.72 51.12 C.3 182 C4182 0
22019 H 19.06 83.39 50.52 H 182 C4182 0
22020 H 20.29 84.33 50.66 H 182 C4182 0
22021 H 20.24 83 51.46 H 182 C4182 0
22022 C 15.96 86.9 50.54 C.3 182 C4182 0
22023 C 16.93 86.32 49.72 C.3 182 C4182 0
22024 H 15.4 87.46 50.02 H 182 C4182 0
22025 H 17.52 86.99 49.4 H 182 C4182 0
22026 H 16.51 85.89 48.98 H 182 C4182 0
22027 C1 17.73 85.28 50.53 C.3 182 C4182 0
22028 O2 17.94 84.16 50.06 O.3 182 C4182 0
22029 O3 18.21 85.59 51.76 O.3 182 C4182 0
22030 C 16.65 87.75 51.62 C.3 182 C4182 0
22031 H 16 88.15 52.18 H 182 C4182 0
22032 H 17.22 87.2 52.15 H 182 C4182 0
22033 H 17.17 88.43 51.21 H 182 C4182 0
22034 C 12.89 84.65 52.55 C.3 182 C4182 0
22035 C 13.87 85.33 53.31 C.3 182 C4182 0
22036 H 12.33 84.16 53.13 H 182 C4182 0
22037 H 14.45 84.7 53.7 H 182 C4182 0
22038 H 13.44 85.83 53.99 H 182 C4182 0
22039 C1 14.66 86.27 52.39 C.3 182 C4182 0
22040 O2 14.87 87.44 52.73 O.3 182 C4182 0
22041 O3 15.14 85.82 51.2 O.3 182 C4182 0
22042 C 13.59 83.69 51.57 C.3 182 C4182 0
22043 H 12.93 83.23 51.06 H 182 C4182 0
22044 H 14.15 84.18 50.99 H 182 C4182 0
22045 H 14.1 83.06 52.06 H 182 C4182 0
22046 C 9.83 86.67 50.3 C.3 182 C4182 0
22047 C 10.8 85.91 49.63 C.3 182 C4182 0
22048 H 9.26 87.09 49.67 H 182 C4182 0
22049 H 11.39 86.5 49.17 H 182 C4182 0
22050 H 10.37 85.33 49.01 H 182 C4182 0
22051 C1 11.59 85.08 50.65 C.3 182 C4182 0
22052 O2 11.8 83.88 50.43 O.3 182 C4182 0
22053 O3 12.07 85.66 51.78 O.3 182 C4182 0
22054 C 10.52 87.73 51.17 C.3 182 C4182 0
22055 H 9.86 88.24 51.63 H 182 C4182 0
22056 H 11.08 87.31 51.81 H 182 C4182 0
22057 H 11.04 88.31 50.62 H 182 C4182 0
22058 C 6.76 84.92 52.76 C.3 182 C4182 0
22059 C 7.73 85.74 53.35 C.3 182 C4182 0
22060 H 6.19 84.56 53.44 H 182 C4182 0
22061 H 8.32 85.21 53.87 H 182 C4182 0
22062 H 7.31 86.38 53.9 H 182 C4182 0
22063 C1 8.53 86.46 52.24 C.3 182 C4182 0
22064 O2 8.73 87.67 52.32 O.3 182 C4182 0
22065 O3 9 85.76 51.18 O.3 182 C4182 0
22066 C 7.45 83.76 52.01 C.3 182 C4182 0
22067 H 6.79 83.2 51.62 H 182 C4182 0
22068 H 8.02 84.11 51.34 H 182 C4182 0
22069 H 7.97 83.25 52.63 H 182 C4182 0
22070 H 3.17 85.95 50.79 H 183 C4183 0
22071 C 3.69 86.38 50.12 C.3 183 C4183 0
22072 C 4.66 85.5 49.63 C.3 183 C4183 0
22073 H 3.13 86.66 49.41 H 183 C4183 0
22074 H 5.25 85.97 49.06 H 183 C4183 0
22075 H 4.24 84.8 49.15 H 183 C4183 0
22076 C1 5.46 84.91 50.81 C.3 183 C4183 0
22077 O2 5.67 83.7 50.87 O.3 183 C4183 0
22078 O3 5.94 85.72 51.79 O.3 183 C4183 0
22079 C 4.38 87.62 50.74 C.3 183 C4183 0
22080 H 3.72 88.21 51.07 H 183 C4183 0
22081 H 4.95 87.34 51.45 H 183 C4183 0
22082 H 4.9 88.05 50.07 H 183 C4183 0
22083 C 92.65 86.47 61.6 C.3 184 C4184 0
22084 C 93.62 85.63 61.05 C.3 184 C4184 0
22085 H 92.09 86.8 60.91 H 184 C4184 0
22086 H 94.21 86.14 60.51 H 184 C4184 0
22087 H 93.2 84.96 60.52 H 184 C4184 0
22088 C1 94.42 84.95 62.18 C.3 184 C4184 0
22089 O2 94.63 83.74 62.15 O.3 184 C4184 0
22090 O3 94.9 85.69 63.21 O.3 184 C4184 0
22091 H5 95.42 85.14 63.79 H 184 C4184 0
22092 C 93.34 87.65 62.31 C.3 184 C4184 0
22093 H 92.68 88.23 62.68 H 184 C4184 0
22094 H 93.91 87.33 62.99 H 184 C4184 0
22095 H 93.86 88.14 61.67 H 184 C4184 0
22096 C 89.58 85.11 64.29 C.3 185 C4185 0
22097 C 90.55 86.01 64.75 C.3 185 C4185 0
22098 H 89.02 84.86 65.01 H 185 C4185 0
22099 H 91.15 85.56 65.35 H 185 C4185 0
22100 H 90.13 86.73 65.2 H 185 C4185 0
22101 C1 91.35 86.55 63.55 C.3 185 C4185 0
22102 O2 91.56 87.76 63.45 O.3 185 C4185 0
22103 O3 91.83 85.7 62.61 O.3 185 C4185 0
22104 C 90.28 83.85 63.73 C.3 185 C4185 0
22105 H 89.62 83.24 63.42 H 185 C4185 0
22106 H 90.84 84.1 63.01 H 185 C4185 0
22107 H 90.79 83.44 64.41 H 185 C4185 0
22108 C 86.52 86.17 61.47 C.3 185 C4185 0
22109 C 87.49 85.22 61.11 C.3 185 C4185 0
22110 H 85.95 86.33 60.72 H 185 C4185 0
22111 H 88.08 85.6 60.47 H 185 C4185 0
22112 H 87.06 84.46 60.74 H 185 C4185 0
22113 C1 88.28 84.81 62.37 C.3 185 C4185 0
22114 O2 88.49 83.62 62.6 O.3 185 C4185 0
22115 O3 88.76 85.76 63.21 O.3 185 C4185 0
22116 C 87.21 87.48 61.89 C.3 185 C4185 0
22117 H 86.55 88.12 62.13 H 185 C4185 0
22118 H 87.77 87.31 62.64 H 185 C4185 0
22119 H 87.73 87.81 61.17 H 185 C4185 0
22120 C 83.45 85.43 64.39 C.3 185 C4185 0
22121 C 84.42 86.4 64.64 C.3 185 C4185 0
22122 H 82.88 85.34 65.15 H 185 C4185 0
22123 H 85.01 86.1 65.32 H 185 C4185 0
22124 H 84 87.21 64.93 H 185 C4185 0
22125 C1 85.22 86.68 63.35 C.3 185 C4185 0
22126 O2 85.42 87.83 62.99 O.3 185 C4185 0
22127 O3 85.69 85.64 62.62 O.3 185 C4185 0
22128 C 84.14 84.08 64.12 C.3 185 C4185 0
22129 H 83.48 83.41 63.95 H 185 C4185 0
22130 H 84.71 84.16 63.36 H 185 C4185 0
22131 H 84.66 83.83 64.87 H 185 C4185 0
22132 C 80.38 85.84 61.4 C.3 185 C4185 0
22133 C 81.35 84.84 61.27 C.3 185 C4185 0
22134 H 79.82 85.84 60.64 H 185 C4185 0
22135 H 81.94 85.07 60.56 H 185 C4185 0
22136 H 80.93 84.01 61.07 H 185 C4185 0
22137 C1 82.15 84.71 62.58 C.3 185 C4185 0
22138 O2 82.36 83.6 63.07 O.3 185 C4185 0
22139 O3 82.63 85.83 63.19 O.3 185 C4185 0
22140 C 81.07 87.21 61.53 C.3 185 C4185 0
22141 H 80.41 87.89 61.63 H 185 C4185 0
22142 H 81.64 87.21 62.29 H 185 C4185 0
22143 H 81.59 87.38 60.75 H 185 C4185 0
22144 C 77.31 85.76 64.42 C.3 185 C4185 0
22145 C 78.28 86.77 64.45 C.3 185 C4185 0
22146 H 76.75 85.84 65.18 H 185 C4185 0
22147 H 78.88 86.62 65.18 H 185 C4185 0
22148 H 77.86 87.61 64.55 H 185 C4185 0
22149 C1 79.08 86.75 63.13 C.3 185 C4185 0
22150 O2 79.29 87.8 62.52 O.3 185 C4185 0
22151 O3 79.56 85.57 62.64 O.3 185 C4185 0
22152 C 78.01 84.38 64.45 C.3 185 C4185 0
22153 H 77.35 83.7 64.43 H 185 C4185 0
22154 H 78.57 84.3 63.69 H 185 C4185 0
22155 H 78.52 84.3 65.24 H 185 C4185 0
22156 C 74.25 85.51 61.41 C.3 185 C4185 0
22157 C 75.22 84.5 61.5 C.3 185 C4185 0
22158 H 73.68 85.34 60.67 H 185 C4185 0
22159 H 75.81 84.56 60.76 H 185 C4185 0
22160 H 74.79 83.65 61.49 H 185 C4185 0
22161 C1 76.01 84.66 62.81 C.3 185 C4185 0
22162 O2 76.22 83.69 63.53 O.3 185 C4185 0
22163 O3 76.49 85.89 63.16 O.3 185 C4185 0
22164 C 74.94 86.87 61.24 C.3 185 C4185 0
22165 H 74.28 87.55 61.18 H 185 C4185 0
22166 H 75.5 87.04 61.98 H 185 C4185 0
22167 H 75.46 86.86 60.44 H 185 C4185 0
22168 C 71.18 86.09 64.38 C.3 185 C4185 0
22169 C 72.15 87.08 64.18 C.3 185 C4185 0
22170 H 70.61 86.34 65.1 H 185 C4185 0
22171 H 72.74 87.1 64.92 H 185 C4185 0
22172 H 71.73 87.93 64.09 H 185 C4185 0
22173 C1 72.95 86.77 62.9 C.3 185 C4185 0
22174 O2 73.15 87.66 62.07 O.3 185 C4185 0
22175 O3 73.42 85.52 62.68 O.3 185 C4185 0
22176 C 71.87 84.75 64.7 C.3 185 C4185 0
22177 H 71.21 84.08 64.84 H 185 C4185 0
22178 H 72.44 84.51 63.98 H 185 C4185 0
22179 H 72.39 84.85 65.49 H 185 C4185 0
22180 C 68.11 85.18 61.5 C.3 185 C4185 0
22181 C 69.08 84.22 61.8 C.3 185 C4185 0
22182 H 67.55 84.85 60.81 H 185 C4185 0
22183 H 69.67 84.12 61.06 H 185 C4185 0
22184 H 68.66 83.39 61.98 H 185 C4185 0
22185 C1 69.88 84.67 63.04 C.3 185 C4185 0
22186 O2 70.09 83.88 63.96 O.3 185 C4185 0
22187 O3 70.36 85.94 63.12 O.3 185 C4185 0
22188 C 68.8 86.47 61.02 C.3 185 C4185 0
22189 H 68.14 87.13 60.82 H 185 C4185 0
22190 H 69.37 86.8 61.71 H 185 C4185 0
22191 H 69.32 86.29 60.25 H 185 C4185 0
22192 C 65.04 86.4 64.26 C.3 185 C4185 0
22193 C 66.01 87.33 63.85 C.3 185 C4185 0
22194 H 64.48 86.81 64.91 H 185 C4185 0
22195 H 66.6 87.51 64.57 H 185 C4185 0
22196 H 65.59 88.13 63.58 H 185 C4185 0
22197 C1 66.81 86.75 62.67 C.3 185 C4185 0
22198 O2 67.02 87.43 61.67 O.3 185 C4185 0
22199 O3 67.29 85.47 62.73 O.3 185 C4185 0
22200 C 65.74 85.17 64.87 C.3 185 C4185 0
22201 H 65.08 84.55 65.15 H 185 C4185 0
22202 H 66.3 84.77 64.22 H 185 C4185 0
22203 H 66.25 85.44 65.62 H 185 C4185 0
22204 C 61.98 84.89 61.65 C.3 185 C4185 0
22205 C 62.95 84.01 62.16 C.3 185 C4185 0
22206 H 61.41 84.41 61.05 H 185 C4185 0
22207 H 63.54 83.75 61.46 H 185 C4185 0
22208 H 62.52 83.24 62.52 H 185 C4185 0
22209 C1 63.74 84.72 63.27 C.3 185 C4185 0
22210 O2 63.95 84.15 64.34 O.3 185 C4185 0
22211 O3 64.22 85.98 63.07 O.3 185 C4185 0
22212 C 62.67 86.04 60.9 C.3 185 C4185 0
22213 H 62.01 86.63 60.56 H 185 C4185 0
22214 H 63.23 86.51 61.5 H 185 C4185 0
22215 H 63.19 85.69 60.19 H 185 C4185 0
22216 C 58.91 86.68 64.07 C.3 185 C4185 0
22217 C 59.88 87.49 63.47 C.3 185 C4185 0
22218 H 58.34 87.22 64.62 H 185 C4185 0
22219 H 60.47 87.83 64.14 H 185 C4185 0
22220 H 59.46 88.22 63.03 H 185 C4185 0
22221 C1 60.68 86.67 62.45 C.3 185 C4185 0
22222 O2 60.88 87.12 61.32 O.3 185 C4185 0
22223 O3 61.15 85.44 62.79 O.3 185 C4185 0
22224 C 59.6 85.62 64.94 C.3 185 C4185 0
22225 H 58.94 85.07 65.35 H 185 C4185 0
22226 H 60.17 85.08 64.4 H 185 C4185 0
22227 H 60.12 86.04 65.62 H 185 C4185 0
22228 C 55.84 84.63 61.86 C.3 185 C4185 0
22229 C 56.81 83.89 62.55 C.3 185 C4185 0
22230 H 55.27 84.04 61.38 H 185 C4185 0
22231 H 57.4 83.48 61.93 H 185 C4185 0
22232 H 56.39 83.22 63.07 H 185 C4185 0
22233 C1 57.61 84.82 63.48 C.3 185 C4185 0
22234 O2 57.81 84.5 64.65 O.3 185 C4185 0
22235 O3 58.09 86.01 63 O.3 185 C4185 0
22236 C 56.53 85.59 60.88 C.3 185 C4185 0
22237 H 55.87 86.1 60.42 H 185 C4185 0
22238 H 57.1 86.18 61.36 H 185 C4185 0
22239 H 57.05 85.1 60.26 H 185 C4185 0
22240 C 52.77 86.92 63.83 C.3 185 C4185 0
22241 C 53.74 87.58 63.07 C.3 185 C4185 0
22242 H 52.21 87.56 64.25 H 185 C4185 0
22243 H 54.33 88.05 63.64 H 185 C4185 0
22244 H 53.32 88.19 62.48 H 185 C4185 0
22245 C1 54.54 86.54 62.25 C.3 185 C4185 0
22246 O2 54.75 86.73 61.05 O.3 185 C4185 0
22247 O3 55.02 85.42 62.85 O.3 185 C4185 0
22248 C 53.46 86.07 64.92 C.3 185 C4185 0
22249 H 52.81 85.62 65.43 H 185 C4185 0
22250 H 54.03 85.43 64.5 H 185 C4185 0
22251 H 53.98 86.63 65.48 H 185 C4185 0
22252 C 49.71 84.43 62.13 C.3 185 C4185 0
22253 C 50.68 83.85 62.96 C.3 185 C4185 0
22254 H 49.14 83.74 61.79 H 185 C4185 0
22255 H 51.27 83.32 62.44 H 185 C4185 0
22256 H 50.25 83.31 63.62 H 185 C4185 0
22257 C1 51.47 84.97 63.66 C.3 185 C4185 0
22258 O2 51.68 84.92 64.87 O.3 185 C4185 0
22259 O3 51.95 86.02 62.94 O.3 185 C4185 0
22260 C 50.4 85.15 60.96 C.3 185 C4185 0
22261 H 49.74 85.54 60.39 H 185 C4185 0
22262 H 50.96 85.83 61.3 H 185 C4185 0
22263 H 50.91 84.53 60.46 H 185 C4185 0
22264 C 46.64 87.09 63.55 C.3 185 C4185 0
22265 C 47.61 87.57 62.66 C.3 185 C4185 0
22266 H 46.07 87.81 63.81 H 185 C4185 0
22267 H 48.2 88.15 63.11 H 185 C4185 0
22268 H 47.19 88.03 61.95 H 185 C4185 0
22269 C1 48.41 86.38 62.09 C.3 185 C4185 0
22270 O2 48.61 86.3 60.88 O.3 185 C4185 0
22271 O3 48.88 85.41 62.92 O.3 185 C4185 0
22272 C 47.33 86.5 64.79 C.3 185 C4185 0
22273 H 46.67 86.18 65.39 H 185 C4185 0
22274 H 47.9 85.78 64.53 H 185 C4185 0
22275 H 47.85 87.17 65.21 H 185 C4185 0
22276 C 43.57 84.29 62.43 C.3 185 C4185 0
22277 C 44.54 83.91 63.37 C.3 185 C4185 0
22278 H 43.01 83.54 62.25 H 185 C4185 0
22279 H 45.13 83.28 62.98 H 185 C4185 0
22280 H 44.12 83.53 64.13 H 185 C4185 0
22281 C1 45.34 85.16 63.81 C.3 185 C4185 0
22282 O2 45.54 85.37 65 O.3 185 C4185 0
22283 O3 45.82 86.02 62.87 O.3 185 C4185 0
22284 C 44.26 84.74 61.13 C.3 185 C4185 0
22285 H 43.6 84.99 60.5 H 185 C4185 0
22286 H 44.83 85.48 61.31 H 185 C4185 0
22287 H 44.78 84.02 60.78 H 185 C4185 0
22288 C 40.5 87.2 63.23 C.3 185 C4185 0
22289 C 41.47 87.46 62.26 C.3 185 C4185 0
22290 H 39.94 87.95 63.33 H 185 C4185 0
22291 H 42.06 88.14 62.57 H 185 C4185 0
22292 H 41.05 87.76 61.46 H 185 C4185 0
22293 C1 42.27 86.18 61.96 C.3 185 C4185 0
22294 O2 42.48 85.84 60.8 O.3 185 C4185 0
22295 O3 42.75 85.42 62.99 O.3 185 C4185 0
22296 C 41.19 86.89 64.57 C.3 185 C4185 0
22297 H 40.54 86.71 65.23 H 185 C4185 0
22298 H 41.76 86.14 64.47 H 185 C4185 0
22299 H 41.71 87.64 64.84 H 185 C4185 0
22300 C 37.44 84.22 62.76 C.3 185 C4185 0
22301 C 38.41 84.06 63.76 C.3 185 C4185 0
22302 H 36.87 83.45 62.75 H 185 C4185 0
22303 H 39 83.35 63.52 H 185 C4185 0
22304 H 37.98 83.85 64.58 H 185 C4185 0
22305 C1 39.2 85.37 63.91 C.3 185 C4185 0
22306 O2 39.41 85.84 65.03 O.3 185 C4185 0
22307 O3 39.68 86.01 62.81 O.3 185 C4185 0
22308 C 38.13 84.37 61.39 C.3 185 C4185 0
22309 H 37.47 84.48 60.72 H 185 C4185 0
22310 H 38.69 85.13 61.41 H 185 C4185 0
22311 H 38.64 83.59 61.21 H 185 C4185 0
22312 C 34.37 87.23 62.9 C.3 185 C4185 0
22313 C 35.34 87.28 61.89 C.3 185 C4185 0
22314 H 33.8 87.99 62.83 H 185 C4185 0
22315 H 35.93 88 62.05 H 185 C4185 0
22316 H 34.91 87.39 61.05 H 185 C4185 0
22317 C1 36.14 85.96 61.88 C.3 185 C4185 0
22318 O2 36.34 85.37 60.82 O.3 185 C4185 0
22319 O3 36.61 85.45 63.05 O.3 185 C4185 0
22320 C 35.06 87.23 64.27 C.3 185 C4185 0
22321 H 34.4 87.2 64.96 H 185 C4185 0
22322 H 35.62 86.47 64.34 H 185 C4185 0
22323 H 35.58 88.02 64.37 H 185 C4185 0
22324 C 31.3 84.22 63.1 C.3 185 C4185 0
22325 C 32.27 84.29 64.1 C.3 185 C4185 0
22326 H 30.73 83.47 63.25 H 185 C4185 0
22327 H 32.86 83.54 64.02 H 185 C4185 0
22328 H 31.85 84.26 64.95 H 185 C4185 0
22329 C1 33.07 85.6 63.96 C.3 185 C4185 0
22330 O2 33.27 86.3 64.95 O.3 185 C4185 0
22331 O3 33.54 85.97 62.75 O.3 185 C4185 0
22332 C 31.99 84.07 61.73 C.3 185 C4185 0
22333 H 31.33 84.02 61.04 H 185 C4185 0
22334 H 32.56 84.82 61.57 H 185 C4185 0
22335 H 32.51 83.27 61.72 H 185 C4185 0
22336 C 28.23 87.19 62.57 C.3 185 C4185 0
22337 C 29.2 87.02 61.57 C.3 185 C4185 0
22338 H 27.67 87.92 62.33 H 185 C4185 0
22339 H 29.79 87.76 61.57 H 185 C4185 0
22340 H 28.78 86.94 60.73 H 185 C4185 0
22341 C1 30 85.73 61.86 C.3 185 C4185 0
22342 O2 30.21 84.92 60.95 O.3 185 C4185 0
22343 O3 30.48 85.49 63.11 O.3 185 C4185 0
22344 C 28.92 87.49 63.91 C.3 185 C4185 0
22345 H 28.27 87.61 64.58 H 185 C4185 0
22346 H 29.49 86.77 64.14 H 185 C4185 0
22347 H 29.44 88.29 63.83 H 185 C4185 0
22348 C 25.17 84.3 63.42 C.3 185 C4185 0
22349 C 26.14 84.58 64.39 C.3 185 C4185 0
22350 H 24.6 83.6 63.74 H 185 C4185 0
22351 H 26.73 83.84 64.47 H 185 C4185 0
22352 H 25.71 84.75 65.22 H 185 C4185 0
22353 C1 26.93 85.83 63.96 C.3 185 C4185 0
22354 O2 27.14 86.73 64.77 O.3 185 C4185 0
22355 O3 27.41 85.93 62.7 O.3 185 C4185 0
22356 C 25.86 83.85 62.12 C.3 185 C4185 0
22357 H 25.2 83.66 61.46 H 185 C4185 0
22358 H 26.42 84.54 61.81 H 185 C4185 0
22359 H 26.37 83.07 62.29 H 185 C4185 0
22360 C 22.1 87.08 62.25 C.3 185 C4185 0
22361 C 23.07 86.69 61.32 C.3 185 C4185 0
22362 H 21.53 87.74 61.86 H 185 C4185 0
22363 H 23.66 87.41 61.15 H 185 C4185 0
22364 H 22.64 86.43 60.51 H 185 C4185 0
22365 C1 23.87 85.5 61.88 C.3 185 C4185 0
22366 O2 24.07 84.51 61.18 O.3 185 C4185 0
22367 O3 24.34 85.53 63.15 O.3 185 C4185 0
22368 C 22.79 87.67 63.5 C.3 185 C4185 0
22369 H 22.13 87.94 64.13 H 185 C4185 0
22370 H 23.35 87.01 63.88 H 185 C4185 0
22371 H 23.31 88.43 63.24 H 185 C4185 0
22372 C 19.03 84.44 63.72 C.3 185 C4185 0
22373 C 20 84.94 64.6 C.3 185 C4185 0
22374 H 18.46 83.84 64.18 H 185 C4185 0
22375 H 20.59 84.23 64.85 H 185 C4185 0
22376 H 19.58 85.28 65.38 H 185 C4185 0
22377 C1 20.8 86.06 63.91 C.3 185 C4185 0
22378 O2 21 87.12 64.51 O.3 185 C4185 0
22379 O3 21.27 85.88 62.65 O.3 185 C4185 0
22380 C 19.72 83.72 62.55 C.3 185 C4185 0
22381 H 19.06 83.39 61.95 H 185 C4185 0
22382 H 20.29 84.33 62.09 H 185 C4185 0
22383 H 20.24 83 62.89 H 185 C4185 0
22384 C 15.96 86.9 61.97 C.3 185 C4185 0
22385 C 16.93 86.32 61.15 C.3 185 C4185 0
22386 H 15.4 87.46 61.45 H 185 C4185 0
22387 H 17.52 86.99 60.83 H 185 C4185 0
22388 H 16.51 85.89 60.41 H 185 C4185 0
22389 C1 17.73 85.28 61.96 C.3 185 C4185 0
22390 O2 17.94 84.16 61.49 O.3 185 C4185 0
22391 O3 18.21 85.59 63.19 O.3 185 C4185 0
22392 C 16.65 87.75 63.05 C.3 185 C4185 0
22393 H 16 88.15 63.61 H 185 C4185 0
22394 H 17.22 87.2 63.58 H 185 C4185 0
22395 H 17.17 88.43 62.64 H 185 C4185 0
22396 C 12.89 84.65 63.98 C.3 185 C4185 0
22397 C 13.87 85.33 64.74 C.3 185 C4185 0
22398 H 12.33 84.16 64.56 H 185 C4185 0
22399 H 14.45 84.7 65.13 H 185 C4185 0
22400 H 13.44 85.83 65.42 H 185 C4185 0
22401 C1 14.66 86.27 63.82 C.3 185 C4185 0
22402 O2 14.87 87.44 64.16 O.3 185 C4185 0
22403 O3 15.14 85.82 62.63 O.3 185 C4185 0
22404 C 13.59 83.69 63 C.3 185 C4185 0
22405 H 12.93 83.23 62.49 H 185 C4185 0
22406 H 14.15 84.18 62.42 H 185 C4185 0
22407 H 14.1 83.06 63.49 H 185 C4185 0
22408 C 9.83 86.67 61.73 C.3 185 C4185 0
22409 C 10.8 85.91 61.06 C.3 185 C4185 0
22410 H 9.26 87.09 61.1 H 185 C4185 0
22411 H 11.39 86.5 60.6 H 185 C4185 0
22412 H 10.37 85.33 60.44 H 185 C4185 0
22413 C1 11.59 85.08 62.08 C.3 185 C4185 0
22414 O2 11.8 83.88 61.86 O.3 185 C4185 0
22415 O3 12.07 85.66 63.21 O.3 185 C4185 0
22416 C 10.52 87.73 62.6 C.3 185 C4185 0
22417 H 9.86 88.24 63.06 H 185 C4185 0
22418 H 11.08 87.31 63.24 H 185 C4185 0
22419 H 11.04 88.31 62.05 H 185 C4185 0
22420 C 6.76 84.92 64.19 C.3 185 C4185 0
22421 C 7.73 85.74 64.78 C.3 185 C4185 0
22422 H 6.19 84.56 64.87 H 185 C4185 0
22423 H 8.32 85.21 65.3 H 185 C4185 0
22424 H 7.31 86.38 65.33 H 185 C4185 0
22425 C1 8.53 86.46 63.67 C.3 185 C4185 0
22426 O2 8.73 87.67 63.75 O.3 185 C4185 0
22427 O3 9 85.76 62.61 O.3 185 C4185 0
22428 C 7.45 83.76 63.44 C.3 185 C4185 0
22429 H 6.79 83.2 63.05 H 185 C4185 0
22430 H 8.02 84.11 62.77 H 185 C4185 0
22431 H 7.97 83.25 64.06 H 185 C4185 0
22432 H 3.17 85.95 62.22 H 186 C4186 0
22433 C 3.69 86.38 61.55 C.3 186 C4186 0
22434 C 4.66 85.5 61.06 C.3 186 C4186 0
22435 H 3.13 86.66 60.84 H 186 C4186 0
22436 H 5.25 85.97 60.49 H 186 C4186 0
22437 H 4.24 84.8 60.58 H 186 C4186 0
22438 C1 5.46 84.91 62.24 C.3 186 C4186 0
22439 O2 5.67 83.7 62.3 O.3 186 C4186 0
22440 O3 5.94 85.72 63.22 O.3 186 C4186 0
22441 C 4.38 87.62 62.17 C.3 186 C4186 0
22442 H 3.72 88.21 62.5 H 186 C4186 0
22443 H 4.95 87.34 62.88 H 186 C4186 0
22444 H 4.9 88.05 61.5 H 186 C4186 0
22445 C 92.65 86.47 73.03 C.3 187 C4187 0
22446 C 93.62 85.63 72.48 C.3 187 C4187 0
22447 H 92.09 86.8 72.34 H 187 C4187 0
22448 H 94.21 86.14 71.94 H 187 C4187 0
22449 H 93.2 84.96 71.95 H 187 C4187 0
22450 C1 94.42 84.95 73.61 C.3 187 C4187 0
22451 O2 94.63 83.74 73.58 O.3 187 C4187 0
22452 O3 94.9 85.69 74.64 O.3 187 C4187 0
22453 H5 95.42 85.14 75.22 H 187 C4187 0
22454 C 93.34 87.65 73.74 C.3 187 C4187 0
22455 H 92.68 88.23 74.11 H 187 C4187 0
22456 H 93.91 87.33 74.42 H 187 C4187 0
22457 H 93.86 88.14 73.1 H 187 C4187 0
22458 C 89.58 85.11 75.72 C.3 188 C4188 0
22459 C 90.55 86.01 76.18 C.3 188 C4188 0
22460 H 89.02 84.86 76.44 H 188 C4188 0
22461 H 91.15 85.56 76.78 H 188 C4188 0
22462 H 90.13 86.73 76.63 H 188 C4188 0
22463 C1 91.35 86.55 74.98 C.3 188 C4188 0
22464 O2 91.56 87.76 74.88 O.3 188 C4188 0
22465 O3 91.83 85.7 74.04 O.3 188 C4188 0
22466 C 90.28 83.85 75.16 C.3 188 C4188 0
22467 H 89.62 83.24 74.85 H 188 C4188 0
22468 H 90.84 84.1 74.44 H 188 C4188 0
22469 H 90.79 83.44 75.84 H 188 C4188 0
22470 C 86.52 86.17 72.9 C.3 188 C4188 0
22471 C 87.49 85.22 72.54 C.3 188 C4188 0
22472 H 85.95 86.33 72.15 H 188 C4188 0
22473 H 88.08 85.6 71.9 H 188 C4188 0
22474 H 87.06 84.46 72.17 H 188 C4188 0
22475 C1 88.28 84.81 73.8 C.3 188 C4188 0
22476 O2 88.49 83.62 74.03 O.3 188 C4188 0
22477 O3 88.76 85.76 74.64 O.3 188 C4188 0
22478 C 87.21 87.48 73.32 C.3 188 C4188 0
22479 H 86.55 88.12 73.56 H 188 C4188 0
22480 H 87.77 87.31 74.07 H 188 C4188 0
22481 H 87.73 87.81 72.6 H 188 C4188 0
22482 C 83.45 85.43 75.82 C.3 188 C4188 0
22483 C 84.42 86.4 76.07 C.3 188 C4188 0
22484 H 82.88 85.34 76.58 H 188 C4188 0
22485 H 85.01 86.1 76.75 H 188 C4188 0
22486 H 84 87.21 76.36 H 188 C4188 0
22487 C1 85.22 86.68 74.78 C.3 188 C4188 0
22488 O2 85.42 87.83 74.42 O.3 188 C4188 0
22489 O3 85.69 85.64 74.05 O.3 188 C4188 0
22490 C 84.14 84.08 75.55 C.3 188 C4188 0
22491 H 83.48 83.41 75.38 H 188 C4188 0
22492 H 84.71 84.16 74.79 H 188 C4188 0
22493 H 84.66 83.83 76.3 H 188 C4188 0
22494 C 80.38 85.84 72.83 C.3 188 C4188 0
22495 C 81.35 84.84 72.7 C.3 188 C4188 0
22496 H 79.82 85.84 72.07 H 188 C4188 0
22497 H 81.94 85.07 71.99 H 188 C4188 0
22498 H 80.93 84.01 72.5 H 188 C4188 0
22499 C1 82.15 84.71 74.01 C.3 188 C4188 0
22500 O2 82.36 83.6 74.5 O.3 188 C4188 0
22501 O3 82.63 85.83 74.62 O.3 188 C4188 0
22502 C 81.07 87.21 72.96 C.3 188 C4188 0
22503 H 80.41 87.89 73.06 H 188 C4188 0
22504 H 81.64 87.21 73.72 H 188 C4188 0
22505 H 81.59 87.38 72.18 H 188 C4188 0
22506 C 77.31 85.76 75.85 C.3 188 C4188 0
22507 C 78.28 86.77 75.88 C.3 188 C4188 0
22508 H 76.75 85.84 76.61 H 188 C4188 0
22509 H 78.88 86.62 76.61 H 188 C4188 0
22510 H 77.86 87.61 75.98 H 188 C4188 0
22511 C1 79.08 86.75 74.56 C.3 188 C4188 0
22512 O2 79.29 87.8 73.95 O.3 188 C4188 0
22513 O3 79.56 85.57 74.07 O.3 188 C4188 0
22514 C 78.01 84.38 75.88 C.3 188 C4188 0
22515 H 77.35 83.7 75.86 H 188 C4188 0
22516 H 78.57 84.3 75.12 H 188 C4188 0
22517 H 78.52 84.3 76.67 H 188 C4188 0
22518 C 74.25 85.51 72.84 C.3 188 C4188 0
22519 C 75.22 84.5 72.93 C.3 188 C4188 0
22520 H 73.68 85.34 72.1 H 188 C4188 0
22521 H 75.81 84.56 72.19 H 188 C4188 0
22522 H 74.79 83.65 72.92 H 188 C4188 0
22523 C1 76.01 84.66 74.24 C.3 188 C4188 0
22524 O2 76.22 83.69 74.96 O.3 188 C4188 0
22525 O3 76.49 85.89 74.59 O.3 188 C4188 0
22526 C 74.94 86.87 72.67 C.3 188 C4188 0
22527 H 74.28 87.55 72.61 H 188 C4188 0
22528 H 75.5 87.04 73.41 H 188 C4188 0
22529 H 75.46 86.86 71.87 H 188 C4188 0
22530 C 71.18 86.09 75.81 C.3 188 C4188 0
22531 C 72.15 87.08 75.61 C.3 188 C4188 0
22532 H 70.61 86.34 76.53 H 188 C4188 0
22533 H 72.74 87.1 76.35 H 188 C4188 0
22534 H 71.73 87.93 75.52 H 188 C4188 0
22535 C1 72.95 86.77 74.33 C.3 188 C4188 0
22536 O2 73.15 87.66 73.5 O.3 188 C4188 0
22537 O3 73.42 85.52 74.11 O.3 188 C4188 0
22538 C 71.87 84.75 76.13 C.3 188 C4188 0
22539 H 71.21 84.08 76.27 H 188 C4188 0
22540 H 72.44 84.51 75.41 H 188 C4188 0
22541 H 72.39 84.85 76.92 H 188 C4188 0
22542 C 68.11 85.18 72.93 C.3 188 C4188 0
22543 C 69.08 84.22 73.23 C.3 188 C4188 0
22544 H 67.55 84.85 72.24 H 188 C4188 0
22545 H 69.67 84.12 72.49 H 188 C4188 0
22546 H 68.66 83.39 73.41 H 188 C4188 0
22547 C1 69.88 84.67 74.47 C.3 188 C4188 0
22548 O2 70.09 83.88 75.39 O.3 188 C4188 0
22549 O3 70.36 85.94 74.55 O.3 188 C4188 0
22550 C 68.8 86.47 72.45 C.3 188 C4188 0
22551 H 68.14 87.13 72.25 H 188 C4188 0
22552 H 69.37 86.8 73.14 H 188 C4188 0
22553 H 69.32 86.29 71.68 H 188 C4188 0
22554 C 65.04 86.4 75.69 C.3 188 C4188 0
22555 C 66.01 87.33 75.28 C.3 188 C4188 0
22556 H 64.48 86.81 76.34 H 188 C4188 0
22557 H 66.6 87.51 76 H 188 C4188 0
22558 H 65.59 88.13 75.01 H 188 C4188 0
22559 C1 66.81 86.75 74.1 C.3 188 C4188 0
22560 O2 67.02 87.43 73.1 O.3 188 C4188 0
22561 O3 67.29 85.47 74.16 O.3 188 C4188 0
22562 C 65.74 85.17 76.3 C.3 188 C4188 0
22563 H 65.08 84.55 76.58 H 188 C4188 0
22564 H 66.3 84.77 75.65 H 188 C4188 0
22565 H 66.25 85.44 77.05 H 188 C4188 0
22566 C 61.98 84.89 73.08 C.3 188 C4188 0
22567 C 62.95 84.01 73.59 C.3 188 C4188 0
22568 H 61.41 84.41 72.48 H 188 C4188 0
22569 H 63.54 83.75 72.89 H 188 C4188 0
22570 H 62.52 83.24 73.95 H 188 C4188 0
22571 C1 63.74 84.72 74.7 C.3 188 C4188 0
22572 O2 63.95 84.15 75.77 O.3 188 C4188 0
22573 O3 64.22 85.98 74.5 O.3 188 C4188 0
22574 C 62.67 86.04 72.33 C.3 188 C4188 0
22575 H 62.01 86.63 71.99 H 188 C4188 0
22576 H 63.23 86.51 72.93 H 188 C4188 0
22577 H 63.19 85.69 71.62 H 188 C4188 0
22578 C 58.91 86.68 75.5 C.3 188 C4188 0
22579 C 59.88 87.49 74.9 C.3 188 C4188 0
22580 H 58.34 87.22 76.05 H 188 C4188 0
22581 H 60.47 87.83 75.57 H 188 C4188 0
22582 H 59.46 88.22 74.46 H 188 C4188 0
22583 C1 60.68 86.67 73.88 C.3 188 C4188 0
22584 O2 60.88 87.12 72.75 O.3 188 C4188 0
22585 O3 61.15 85.44 74.22 O.3 188 C4188 0
22586 C 59.6 85.62 76.37 C.3 188 C4188 0
22587 H 58.94 85.07 76.78 H 188 C4188 0
22588 H 60.17 85.08 75.83 H 188 C4188 0
22589 H 60.12 86.04 77.05 H 188 C4188 0
22590 C 55.84 84.63 73.29 C.3 188 C4188 0
22591 C 56.81 83.89 73.98 C.3 188 C4188 0
22592 H 55.27 84.04 72.81 H 188 C4188 0
22593 H 57.4 83.48 73.36 H 188 C4188 0
22594 H 56.39 83.22 74.5 H 188 C4188 0
22595 C1 57.61 84.82 74.91 C.3 188 C4188 0
22596 O2 57.81 84.5 76.08 O.3 188 C4188 0
22597 O3 58.09 86.01 74.43 O.3 188 C4188 0
22598 C 56.53 85.59 72.31 C.3 188 C4188 0
22599 H 55.87 86.1 71.85 H 188 C4188 0
22600 H 57.1 86.18 72.79 H 188 C4188 0
22601 H 57.05 85.1 71.69 H 188 C4188 0
22602 C 52.77 86.92 75.26 C.3 188 C4188 0
22603 C 53.74 87.58 74.5 C.3 188 C4188 0
22604 H 52.21 87.56 75.68 H 188 C4188 0
22605 H 54.33 88.05 75.07 H 188 C4188 0
22606 H 53.32 88.19 73.91 H 188 C4188 0
22607 C1 54.54 86.54 73.68 C.3 188 C4188 0
22608 O2 54.75 86.73 72.48 O.3 188 C4188 0
22609 O3 55.02 85.42 74.28 O.3 188 C4188 0
22610 C 53.46 86.07 76.35 C.3 188 C4188 0
22611 H 52.81 85.62 76.86 H 188 C4188 0
22612 H 54.03 85.43 75.93 H 188 C4188 0
22613 H 53.98 86.63 76.91 H 188 C4188 0
22614 C 49.71 84.43 73.56 C.3 188 C4188 0
22615 C 50.68 83.85 74.39 C.3 188 C4188 0
22616 H 49.14 83.74 73.22 H 188 C4188 0
22617 H 51.27 83.32 73.87 H 188 C4188 0
22618 H 50.25 83.31 75.05 H 188 C4188 0
22619 C1 51.47 84.97 75.09 C.3 188 C4188 0
22620 O2 51.68 84.92 76.3 O.3 188 C4188 0
22621 O3 51.95 86.02 74.37 O.3 188 C4188 0
22622 C 50.4 85.15 72.39 C.3 188 C4188 0
22623 H 49.74 85.54 71.82 H 188 C4188 0
22624 H 50.96 85.83 72.73 H 188 C4188 0
22625 H 50.91 84.53 71.89 H 188 C4188 0
22626 C 46.64 87.09 74.98 C.3 188 C4188 0
22627 C 47.61 87.57 74.09 C.3 188 C4188 0
22628 H 46.07 87.81 75.24 H 188 C4188 0
22629 H 48.2 88.15 74.54 H 188 C4188 0
22630 H 47.19 88.03 73.38 H 188 C4188 0
22631 C1 48.41 86.38 73.52 C.3 188 C4188 0
22632 O2 48.61 86.3 72.31 O.3 188 C4188 0
22633 O3 48.88 85.41 74.35 O.3 188 C4188 0
22634 C 47.33 86.5 76.22 C.3 188 C4188 0
22635 H 46.67 86.18 76.82 H 188 C4188 0
22636 H 47.9 85.78 75.96 H 188 C4188 0
22637 H 47.85 87.17 76.64 H 188 C4188 0
22638 C 43.57 84.29 73.86 C.3 188 C4188 0
22639 C 44.54 83.91 74.8 C.3 188 C4188 0
22640 H 43.01 83.54 73.68 H 188 C4188 0
22641 H 45.13 83.28 74.41 H 188 C4188 0
22642 H 44.12 83.53 75.56 H 188 C4188 0
22643 C1 45.34 85.16 75.24 C.3 188 C4188 0
22644 O2 45.54 85.37 76.43 O.3 188 C4188 0
22645 O3 45.82 86.02 74.3 O.3 188 C4188 0
22646 C 44.26 84.74 72.56 C.3 188 C4188 0
22647 H 43.6 84.99 71.93 H 188 C4188 0
22648 H 44.83 85.48 72.74 H 188 C4188 0
22649 H 44.78 84.02 72.21 H 188 C4188 0
22650 C 40.5 87.2 74.66 C.3 188 C4188 0
22651 C 41.47 87.46 73.69 C.3 188 C4188 0
22652 H 39.94 87.95 74.76 H 188 C4188 0
22653 H 42.06 88.14 74 H 188 C4188 0
22654 H 41.05 87.76 72.89 H 188 C4188 0
22655 C1 42.27 86.18 73.39 C.3 188 C4188 0
22656 O2 42.48 85.84 72.23 O.3 188 C4188 0
22657 O3 42.75 85.42 74.42 O.3 188 C4188 0
22658 C 41.19 86.89 76 C.3 188 C4188 0
22659 H 40.54 86.71 76.66 H 188 C4188 0
22660 H 41.76 86.14 75.9 H 188 C4188 0
22661 H 41.71 87.64 76.27 H 188 C4188 0
22662 C 37.44 84.22 74.19 C.3 188 C4188 0
22663 C 38.41 84.06 75.19 C.3 188 C4188 0
22664 H 36.87 83.45 74.18 H 188 C4188 0
22665 H 39 83.35 74.95 H 188 C4188 0
22666 H 37.98 83.85 76.01 H 188 C4188 0
22667 C1 39.2 85.37 75.34 C.3 188 C4188 0
22668 O2 39.41 85.84 76.46 O.3 188 C4188 0
22669 O3 39.68 86.01 74.24 O.3 188 C4188 0
22670 C 38.13 84.37 72.82 C.3 188 C4188 0
22671 H 37.47 84.48 72.15 H 188 C4188 0
22672 H 38.69 85.13 72.84 H 188 C4188 0
22673 H 38.64 83.59 72.64 H 188 C4188 0
22674 C 34.37 87.23 74.33 C.3 188 C4188 0
22675 C 35.34 87.28 73.32 C.3 188 C4188 0
22676 H 33.8 87.99 74.26 H 188 C4188 0
22677 H 35.93 88 73.48 H 188 C4188 0
22678 H 34.91 87.39 72.48 H 188 C4188 0
22679 C1 36.14 85.96 73.31 C.3 188 C4188 0
22680 O2 36.34 85.37 72.25 O.3 188 C4188 0
22681 O3 36.61 85.45 74.48 O.3 188 C4188 0
22682 C 35.06 87.23 75.7 C.3 188 C4188 0
22683 H 34.4 87.2 76.39 H 188 C4188 0
22684 H 35.62 86.47 75.77 H 188 C4188 0
22685 H 35.58 88.02 75.8 H 188 C4188 0
22686 C 31.3 84.22 74.53 C.3 188 C4188 0
22687 C 32.27 84.29 75.53 C.3 188 C4188 0
22688 H 30.73 83.47 74.68 H 188 C4188 0
22689 H 32.86 83.54 75.45 H 188 C4188 0
22690 H 31.85 84.26 76.38 H 188 C4188 0
22691 C1 33.07 85.6 75.39 C.3 188 C4188 0
22692 O2 33.27 86.3 76.38 O.3 188 C4188 0
22693 O3 33.54 85.97 74.18 O.3 188 C4188 0
22694 C 31.99 84.07 73.16 C.3 188 C4188 0
22695 H 31.33 84.02 72.47 H 188 C4188 0
22696 H 32.56 84.82 73 H 188 C4188 0
22697 H 32.51 83.27 73.15 H 188 C4188 0
22698 C 28.23 87.19 74 C.3 188 C4188 0
22699 C 29.2 87.02 73 C.3 188 C4188 0
22700 H 27.67 87.92 73.76 H 188 C4188 0
22701 H 29.79 87.76 73 H 188 C4188 0
22702 H 28.78 86.94 72.16 H 188 C4188 0
22703 C1 30 85.73 73.29 C.3 188 C4188 0
22704 O2 30.21 84.92 72.38 O.3 188 C4188 0
22705 O3 30.48 85.49 74.54 O.3 188 C4188 0
22706 C 28.92 87.49 75.34 C.3 188 C4188 0
22707 H 28.27 87.61 76.01 H 188 C4188 0
22708 H 29.49 86.77 75.57 H 188 C4188 0
22709 H 29.44 88.29 75.26 H 188 C4188 0
22710 C 25.17 84.3 74.85 C.3 188 C4188 0
22711 C 26.14 84.58 75.82 C.3 188 C4188 0
22712 H 24.6 83.6 75.17 H 188 C4188 0
22713 H 26.73 83.84 75.9 H 188 C4188 0
22714 H 25.71 84.75 76.65 H 188 C4188 0
22715 C1 26.93 85.83 75.39 C.3 188 C4188 0
22716 O2 27.14 86.73 76.2 O.3 188 C4188 0
22717 O3 27.41 85.93 74.13 O.3 188 C4188 0
22718 C 25.86 83.85 73.55 C.3 188 C4188 0
22719 H 25.2 83.66 72.89 H 188 C4188 0
22720 H 26.42 84.54 73.24 H 188 C4188 0
22721 H 26.37 83.07 73.72 H 188 C4188 0
22722 C 22.1 87.08 73.68 C.3 188 C4188 0
22723 C 23.07 86.69 72.75 C.3 188 C4188 0
22724 H 21.53 87.74 73.29 H 188 C4188 0
22725 H 23.66 87.41 72.58 H 188 C4188 0
22726 H 22.64 86.43 71.94 H 188 C4188 0
22727 C1 23.87 85.5 73.31 C.3 188 C4188 0
22728 O2 24.07 84.51 72.61 O.3 188 C4188 0
22729 O3 24.34 85.53 74.58 O.3 188 C4188 0
22730 C 22.79 87.67 74.93 C.3 188 C4188 0
22731 H 22.13 87.94 75.56 H 188 C4188 0
22732 H 23.35 87.01 75.31 H 188 C4188 0
22733 H 23.31 88.43 74.67 H 188 C4188 0
22734 C 19.03 84.44 75.15 C.3 188 C4188 0
22735 C 20 84.94 76.03 C.3 188 C4188 0
22736 H 18.46 83.84 75.61 H 188 C4188 0
22737 H 20.59 84.23 76.28 H 188 C4188 0
22738 H 19.58 85.28 76.81 H 188 C4188 0
22739 C1 20.8 86.06 75.34 C.3 188 C4188 0
22740 O2 21 87.12 75.94 O.3 188 C4188 0
22741 O3 21.27 85.88 74.08 O.3 188 C4188 0
22742 C 19.72 83.72 73.98 C.3 188 C4188 0
22743 H 19.06 83.39 73.38 H 188 C4188 0
22744 H 20.29 84.33 73.52 H 188 C4188 0
22745 H 20.24 83 74.32 H 188 C4188 0
22746 C 15.96 86.9 73.4 C.3 188 C4188 0
22747 C 16.93 86.32 72.58 C.3 188 C4188 0
22748 H 15.4 87.46 72.88 H 188 C4188 0
22749 H 17.52 86.99 72.26 H 188 C4188 0
22750 H 16.51 85.89 71.84 H 188 C4188 0
22751 C1 17.73 85.28 73.39 C.3 188 C4188 0
22752 O2 17.94 84.16 72.92 O.3 188 C4188 0
22753 O3 18.21 85.59 74.62 O.3 188 C4188 0
22754 C 16.65 87.75 74.48 C.3 188 C4188 0
22755 H 16 88.15 75.04 H 188 C4188 0
22756 H 17.22 87.2 75.01 H 188 C4188 0
22757 H 17.17 88.43 74.07 H 188 C4188 0
22758 C 12.89 84.65 75.41 C.3 188 C4188 0
22759 C 13.87 85.33 76.17 C.3 188 C4188 0
22760 H 12.33 84.16 75.99 H 188 C4188 0
22761 H 14.45 84.7 76.56 H 188 C4188 0
22762 H 13.44 85.83 76.85 H 188 C4188 0
22763 C1 14.66 86.27 75.25 C.3 188 C4188 0
22764 O2 14.87 87.44 75.59 O.3 188 C4188 0
22765 O3 15.14 85.82 74.06 O.3 188 C4188 0
22766 C 13.59 83.69 74.43 C.3 188 C4188 0
22767 H 12.93 83.23 73.92 H 188 C4188 0
22768 H 14.15 84.18 73.85 H 188 C4188 0
22769 H 14.1 83.06 74.92 H 188 C4188 0
22770 C 9.83 86.67 73.16 C.3 188 C4188 0
22771 C 10.8 85.91 72.49 C.3 188 C4188 0
22772 H 9.26 87.09 72.53 H 188 C4188 0
22773 H 11.39 86.5 72.03 H 188 C4188 0
22774 H 10.37 85.33 71.87 H 188 C4188 0
22775 C1 11.59 85.08 73.51 C.3 188 C4188 0
22776 O2 11.8 83.88 73.29 O.3 188 C4188 0
22777 O3 12.07 85.66 74.64 O.3 188 C4188 0
22778 C 10.52 87.73 74.03 C.3 188 C4188 0
22779 H 9.86 88.24 74.49 H 188 C4188 0
22780 H 11.08 87.31 74.67 H 188 C4188 0
22781 H 11.04 88.31 73.48 H 188 C4188 0
22782 C 6.76 84.92 75.62 C.3 188 C4188 0
22783 C 7.73 85.74 76.21 C.3 188 C4188 0
22784 H 6.19 84.56 76.3 H 188 C4188 0
22785 H 8.32 85.21 76.73 H 188 C4188 0
22786 H 7.31 86.38 76.76 H 188 C4188 0
22787 C1 8.53 86.46 75.1 C.3 188 C4188 0
22788 O2 8.73 87.67 75.18 O.3 188 C4188 0
22789 O3 9 85.76 74.04 O.3 188 C4188 0
22790 C 7.45 83.76 74.87 C.3 188 C4188 0
22791 H 6.79 83.2 74.48 H 188 C4188 0
22792 H 8.02 84.11 74.2 H 188 C4188 0
22793 H 7.97 83.25 75.49 H 188 C4188 0
22794 H 3.17 85.95 73.65 H 189 C4189 0
22795 C 3.69 86.38 72.98 C.3 189 C4189 0
22796 C 4.66 85.5 72.49 C.3 189 C4189 0
22797 H 3.13 86.66 72.27 H 189 C4189 0
22798 H 5.25 85.97 71.92 H 189 C4189 0
22799 H 4.24 84.8 72.01 H 189 C4189 0
22800 C1 5.46 84.91 73.67 C.3 189 C4189 0
22801 O2 5.67 83.7 73.73 O.3 189 C4189 0
22802 O3 5.94 85.72 74.65 O.3 189 C4189 0
22803 C 4.38 87.62 73.6 C.3 189 C4189 0
22804 H 3.72 88.21 73.93 H 189 C4189 0
22805 H 4.95 87.34 74.31 H 189 C4189 0
22806 H 4.9 88.05 72.93 H 189 C4189 0
22807 C 92.65 86.47 84.46 C.3 190 C4190 0
22808 C 93.62 85.63 83.91 C.3 190 C4190 0
22809 H 92.09 86.8 83.77 H 190 C4190 0
22810 H 94.21 86.14 83.37 H 190 C4190 0
22811 H 93.2 84.96 83.38 H 190 C4190 0
22812 C1 94.42 84.95 85.04 C.3 190 C4190 0
22813 O2 94.63 83.74 85.01 O.3 190 C4190 0
22814 O3 94.9 85.69 86.07 O.3 190 C4190 0
22815 H5 95.42 85.14 86.65 H 190 C4190 0
22816 C 93.34 87.65 85.17 C.3 190 C4190 0
22817 H 92.68 88.23 85.54 H 190 C4190 0
22818 H 93.91 87.33 85.85 H 190 C4190 0
22819 H 93.86 88.14 84.53 H 190 C4190 0
22820 C 89.58 85.11 87.15 C.3 191 C4191 0
22821 C 90.55 86.01 87.61 C.3 191 C4191 0
22822 H 89.02 84.86 87.87 H 191 C4191 0
22823 H 91.15 85.56 88.21 H 191 C4191 0
22824 H 90.13 86.73 88.06 H 191 C4191 0
22825 C1 91.35 86.55 86.41 C.3 191 C4191 0
22826 O2 91.56 87.76 86.31 O.3 191 C4191 0
22827 O3 91.83 85.7 85.47 O.3 191 C4191 0
22828 C 90.28 83.85 86.59 C.3 191 C4191 0
22829 H 89.62 83.24 86.28 H 191 C4191 0
22830 H 90.84 84.1 85.87 H 191 C4191 0
22831 H 90.79 83.44 87.27 H 191 C4191 0
22832 C 86.52 86.17 84.33 C.3 191 C4191 0
22833 C 87.49 85.22 83.97 C.3 191 C4191 0
22834 H 85.95 86.33 83.58 H 191 C4191 0
22835 H 88.08 85.6 83.33 H 191 C4191 0
22836 H 87.06 84.46 83.6 H 191 C4191 0
22837 C1 88.28 84.81 85.23 C.3 191 C4191 0
22838 O2 88.49 83.62 85.46 O.3 191 C4191 0
22839 O3 88.76 85.76 86.07 O.3 191 C4191 0
22840 C 87.21 87.48 84.75 C.3 191 C4191 0
22841 H 86.55 88.12 84.99 H 191 C4191 0
22842 H 87.77 87.31 85.5 H 191 C4191 0
22843 H 87.73 87.81 84.03 H 191 C4191 0
22844 C 83.45 85.43 87.25 C.3 191 C4191 0
22845 C 84.42 86.4 87.5 C.3 191 C4191 0
22846 H 82.88 85.34 88.01 H 191 C4191 0
22847 H 85.01 86.1 88.18 H 191 C4191 0
22848 H 84 87.21 87.79 H 191 C4191 0
22849 C1 85.22 86.68 86.21 C.3 191 C4191 0
22850 O2 85.42 87.83 85.85 O.3 191 C4191 0
22851 O3 85.69 85.64 85.48 O.3 191 C4191 0
22852 C 84.14 84.08 86.98 C.3 191 C4191 0
22853 H 83.48 83.41 86.81 H 191 C4191 0
22854 H 84.71 84.16 86.22 H 191 C4191 0
22855 H 84.66 83.83 87.73 H 191 C4191 0
22856 C 80.38 85.84 84.26 C.3 191 C4191 0
22857 C 81.35 84.84 84.13 C.3 191 C4191 0
22858 H 79.82 85.84 83.5 H 191 C4191 0
22859 H 81.94 85.07 83.42 H 191 C4191 0
22860 H 80.93 84.01 83.93 H 191 C4191 0
22861 C1 82.15 84.71 85.44 C.3 191 C4191 0
22862 O2 82.36 83.6 85.93 O.3 191 C4191 0
22863 O3 82.63 85.83 86.05 O.3 191 C4191 0
22864 C 81.07 87.21 84.39 C.3 191 C4191 0
22865 H 80.41 87.89 84.49 H 191 C4191 0
22866 H 81.64 87.21 85.15 H 191 C4191 0
22867 H 81.59 87.38 83.61 H 191 C4191 0
22868 C 77.31 85.76 87.28 C.3 191 C4191 0
22869 C 78.28 86.77 87.31 C.3 191 C4191 0
22870 H 76.75 85.84 88.04 H 191 C4191 0
22871 H 78.88 86.62 88.04 H 191 C4191 0
22872 H 77.86 87.61 87.41 H 191 C4191 0
22873 C1 79.08 86.75 85.99 C.3 191 C4191 0
22874 O2 79.29 87.8 85.38 O.3 191 C4191 0
22875 O3 79.56 85.57 85.5 O.3 191 C4191 0
22876 C 78.01 84.38 87.31 C.3 191 C4191 0
22877 H 77.35 83.7 87.29 H 191 C4191 0
22878 H 78.57 84.3 86.55 H 191 C4191 0
22879 H 78.52 84.3 88.1 H 191 C4191 0
22880 C 74.25 85.51 84.27 C.3 191 C4191 0
22881 C 75.22 84.5 84.36 C.3 191 C4191 0
22882 H 73.68 85.34 83.53 H 191 C4191 0
22883 H 75.81 84.56 83.62 H 191 C4191 0
22884 H 74.79 83.65 84.35 H 191 C4191 0
22885 C1 76.01 84.66 85.67 C.3 191 C4191 0
22886 O2 76.22 83.69 86.39 O.3 191 C4191 0
22887 O3 76.49 85.89 86.02 O.3 191 C4191 0
22888 C 74.94 86.87 84.1 C.3 191 C4191 0
22889 H 74.28 87.55 84.04 H 191 C4191 0
22890 H 75.5 87.04 84.84 H 191 C4191 0
22891 H 75.46 86.86 83.3 H 191 C4191 0
22892 C 71.18 86.09 87.24 C.3 191 C4191 0
22893 C 72.15 87.08 87.04 C.3 191 C4191 0
22894 H 70.61 86.34 87.96 H 191 C4191 0
22895 H 72.74 87.1 87.78 H 191 C4191 0
22896 H 71.73 87.93 86.95 H 191 C4191 0
22897 C1 72.95 86.77 85.76 C.3 191 C4191 0
22898 O2 73.15 87.66 84.93 O.3 191 C4191 0
22899 O3 73.42 85.52 85.54 O.3 191 C4191 0
22900 C 71.87 84.75 87.56 C.3 191 C4191 0
22901 H 71.21 84.08 87.7 H 191 C4191 0
22902 H 72.44 84.51 86.84 H 191 C4191 0
22903 H 72.39 84.85 88.35 H 191 C4191 0
22904 C 68.11 85.18 84.36 C.3 191 C4191 0
22905 C 69.08 84.22 84.66 C.3 191 C4191 0
22906 H 67.55 84.85 83.67 H 191 C4191 0
22907 H 69.67 84.12 83.92 H 191 C4191 0
22908 H 68.66 83.39 84.84 H 191 C4191 0
22909 C1 69.88 84.67 85.9 C.3 191 C4191 0
22910 O2 70.09 83.88 86.82 O.3 191 C4191 0
22911 O3 70.36 85.94 85.98 O.3 191 C4191 0
22912 C 68.8 86.47 83.88 C.3 191 C4191 0
22913 H 68.14 87.13 83.68 H 191 C4191 0
22914 H 69.37 86.8 84.57 H 191 C4191 0
22915 H 69.32 86.29 83.11 H 191 C4191 0
22916 C 65.04 86.4 87.12 C.3 191 C4191 0
22917 C 66.01 87.33 86.71 C.3 191 C4191 0
22918 H 64.48 86.81 87.77 H 191 C4191 0
22919 H 66.6 87.51 87.43 H 191 C4191 0
22920 H 65.59 88.13 86.44 H 191 C4191 0
22921 C1 66.81 86.75 85.53 C.3 191 C4191 0
22922 O2 67.02 87.43 84.53 O.3 191 C4191 0
22923 O3 67.29 85.47 85.59 O.3 191 C4191 0
22924 C 65.74 85.17 87.73 C.3 191 C4191 0
22925 H 65.08 84.55 88.01 H 191 C4191 0
22926 H 66.3 84.77 87.08 H 191 C4191 0
22927 H 66.25 85.44 88.48 H 191 C4191 0
22928 C 61.98 84.89 84.51 C.3 191 C4191 0
22929 C 62.95 84.01 85.02 C.3 191 C4191 0
22930 H 61.41 84.41 83.91 H 191 C4191 0
22931 H 63.54 83.75 84.32 H 191 C4191 0
22932 H 62.52 83.24 85.38 H 191 C4191 0
22933 C1 63.74 84.72 86.13 C.3 191 C4191 0
22934 O2 63.95 84.15 87.2 O.3 191 C4191 0
22935 O3 64.22 85.98 85.93 O.3 191 C4191 0
22936 C 62.67 86.04 83.76 C.3 191 C4191 0
22937 H 62.01 86.63 83.42 H 191 C4191 0
22938 H 63.23 86.51 84.36 H 191 C4191 0
22939 H 63.19 85.69 83.05 H 191 C4191 0
22940 C 58.91 86.68 86.93 C.3 191 C4191 0
22941 C 59.88 87.49 86.33 C.3 191 C4191 0
22942 H 58.34 87.22 87.48 H 191 C4191 0
22943 H 60.47 87.83 87 H 191 C4191 0
22944 H 59.46 88.22 85.89 H 191 C4191 0
22945 C1 60.68 86.67 85.31 C.3 191 C4191 0
22946 O2 60.88 87.12 84.18 O.3 191 C4191 0
22947 O3 61.15 85.44 85.65 O.3 191 C4191 0
22948 C 59.6 85.62 87.8 C.3 191 C4191 0
22949 H 58.94 85.07 88.21 H 191 C4191 0
22950 H 60.17 85.08 87.26 H 191 C4191 0
22951 H 60.12 86.04 88.48 H 191 C4191 0
22952 C 55.84 84.63 84.72 C.3 191 C4191 0
22953 C 56.81 83.89 85.41 C.3 191 C4191 0
22954 H 55.27 84.04 84.24 H 191 C4191 0
22955 H 57.4 83.48 84.79 H 191 C4191 0
22956 H 56.39 83.22 85.93 H 191 C4191 0
22957 C1 57.61 84.82 86.34 C.3 191 C4191 0
22958 O2 57.81 84.5 87.51 O.3 191 C4191 0
22959 O3 58.09 86.01 85.86 O.3 191 C4191 0
22960 C 56.53 85.59 83.74 C.3 191 C4191 0
22961 H 55.87 86.1 83.28 H 191 C4191 0
22962 H 57.1 86.18 84.22 H 191 C4191 0
22963 H 57.05 85.1 83.12 H 191 C4191 0
22964 C 52.77 86.92 86.69 C.3 191 C4191 0
22965 C 53.74 87.58 85.93 C.3 191 C4191 0
22966 H 52.21 87.56 87.11 H 191 C4191 0
22967 H 54.33 88.05 86.5 H 191 C4191 0
22968 H 53.32 88.19 85.34 H 191 C4191 0
22969 C1 54.54 86.54 85.11 C.3 191 C4191 0
22970 O2 54.75 86.73 83.91 O.3 191 C4191 0
22971 O3 55.02 85.42 85.71 O.3 191 C4191 0
22972 C 53.46 86.07 87.78 C.3 191 C4191 0
22973 H 52.81 85.62 88.29 H 191 C4191 0
22974 H 54.03 85.43 87.36 H 191 C4191 0
22975 H 53.98 86.63 88.34 H 191 C4191 0
22976 C 49.71 84.43 84.99 C.3 191 C4191 0
22977 C 50.68 83.85 85.82 C.3 191 C4191 0
22978 H 49.14 83.74 84.65 H 191 C4191 0
22979 H 51.27 83.32 85.3 H 191 C4191 0
22980 H 50.25 83.31 86.48 H 191 C4191 0
22981 C1 51.47 84.97 86.52 C.3 191 C4191 0
22982 O2 51.68 84.92 87.73 O.3 191 C4191 0
22983 O3 51.95 86.02 85.8 O.3 191 C4191 0
22984 C 50.4 85.15 83.82 C.3 191 C4191 0
22985 H 49.74 85.54 83.25 H 191 C4191 0
22986 H 50.96 85.83 84.16 H 191 C4191 0
22987 H 50.91 84.53 83.32 H 191 C4191 0
22988 C 46.64 87.09 86.41 C.3 191 C4191 0
22989 C 47.61 87.57 85.52 C.3 191 C4191 0
22990 H 46.07 87.81 86.67 H 191 C4191 0
22991 H 48.2 88.15 85.97 H 191 C4191 0
22992 H 47.19 88.03 84.81 H 191 C4191 0
22993 C1 48.41 86.38 84.95 C.3 191 C4191 0
22994 O2 48.61 86.3 83.74 O.3 191 C4191 0
22995 O3 48.88 85.41 85.78 O.3 191 C4191 0
22996 C 47.33 86.5 87.65 C.3 191 C4191 0
22997 H 46.67 86.18 88.25 H 191 C4191 0
22998 H 47.9 85.78 87.39 H 191 C4191 0
22999 H 47.85 87.17 88.07 H 191 C4191 0
23000 C 43.57 84.29 85.29 C.3 191 C4191 0
23001 C 44.54 83.91 86.23 C.3 191 C4191 0
23002 H 43.01 83.54 85.11 H 191 C4191 0
23003 H 45.13 83.28 85.84 H 191 C4191 0
23004 H 44.12 83.53 86.99 H 191 C4191 0
23005 C1 45.34 85.16 86.67 C.3 191 C4191 0
23006 O2 45.54 85.37 87.86 O.3 191 C4191 0
23007 O3 45.82 86.02 85.73 O.3 191 C4191 0
23008 C 44.26 84.74 83.99 C.3 191 C4191 0
23009 H 43.6 84.99 83.36 H 191 C4191 0
23010 H 44.83 85.48 84.17 H 191 C4191 0
23011 H 44.78 84.02 83.64 H 191 C4191 0
23012 C 40.5 87.2 86.09 C.3 191 C4191 0
23013 C 41.47 87.46 85.12 C.3 191 C4191 0
23014 H 39.94 87.95 86.19 H 191 C4191 0
23015 H 42.06 88.14 85.43 H 191 C4191 0
23016 H 41.05 87.76 84.32 H 191 C4191 0
23017 C1 42.27 86.18 84.82 C.3 191 C4191 0
23018 O2 42.48 85.84 83.66 O.3 191 C4191 0
23019 O3 42.75 85.42 85.85 O.3 191 C4191 0
23020 C 41.19 86.89 87.43 C.3 191 C4191 0
23021 H 40.54 86.71 88.09 H 191 C4191 0
23022 H 41.76 86.14 87.33 H 191 C4191 0
23023 H 41.71 87.64 87.7 H 191 C4191 0
23024 C 37.44 84.22 85.62 C.3 191 C4191 0
23025 C 38.41 84.06 86.62 C.3 191 C4191 0
23026 H 36.87 83.45 85.61 H 191 C4191 0
23027 H 39 83.35 86.38 H 191 C4191 0
23028 H 37.98 83.85 87.44 H 191 C4191 0
23029 C1 39.2 85.37 86.77 C.3 191 C4191 0
23030 O2 39.41 85.84 87.89 O.3 191 C4191 0
23031 O3 39.68 86.01 85.67 O.3 191 C4191 0
23032 C 38.13 84.37 84.25 C.3 191 C4191 0
23033 H 37.47 84.48 83.58 H 191 C4191 0
23034 H 38.69 85.13 84.27 H 191 C4191 0
23035 H 38.64 83.59 84.07 H 191 C4191 0
23036 C 34.37 87.23 85.76 C.3 191 C4191 0
23037 C 35.34 87.28 84.75 C.3 191 C4191 0
23038 H 33.8 87.99 85.69 H 191 C4191 0
23039 H 35.93 88 84.91 H 191 C4191 0
23040 H 34.91 87.39 83.91 H 191 C4191 0
23041 C1 36.14 85.96 84.74 C.3 191 C4191 0
23042 O2 36.34 85.37 83.68 O.3 191 C4191 0
23043 O3 36.61 85.45 85.91 O.3 191 C4191 0
23044 C 35.06 87.23 87.13 C.3 191 C4191 0
23045 H 34.4 87.2 87.82 H 191 C4191 0
23046 H 35.62 86.47 87.2 H 191 C4191 0
23047 H 35.58 88.02 87.23 H 191 C4191 0
23048 C 31.3 84.22 85.96 C.3 191 C4191 0
23049 C 32.27 84.29 86.96 C.3 191 C4191 0
23050 H 30.73 83.47 86.11 H 191 C4191 0
23051 H 32.86 83.54 86.88 H 191 C4191 0
23052 H 31.85 84.26 87.81 H 191 C4191 0
23053 C1 33.07 85.6 86.82 C.3 191 C4191 0
23054 O2 33.27 86.3 87.81 O.3 191 C4191 0
23055 O3 33.54 85.97 85.61 O.3 191 C4191 0
23056 C 31.99 84.07 84.59 C.3 191 C4191 0
23057 H 31.33 84.02 83.9 H 191 C4191 0
23058 H 32.56 84.82 84.43 H 191 C4191 0
23059 H 32.51 83.27 84.58 H 191 C4191 0
23060 C 28.23 87.19 85.43 C.3 191 C4191 0
23061 C 29.2 87.02 84.43 C.3 191 C4191 0
23062 H 27.67 87.92 85.19 H 191 C4191 0
23063 H 29.79 87.76 84.43 H 191 C4191 0
23064 H 28.78 86.94 83.59 H 191 C4191 0
23065 C1 30 85.73 84.72 C.3 191 C4191 0
23066 O2 30.21 84.92 83.81 O.3 191 C4191 0
23067 O3 30.48 85.49 85.97 O.3 191 C4191 0
23068 C 28.92 87.49 86.77 C.3 191 C4191 0
23069 H 28.27 87.61 87.44 H 191 C4191 0
23070 H 29.49 86.77 87 H 191 C4191 0
23071 H 29.44 88.29 86.69 H 191 C4191 0
23072 C 25.17 84.3 86.28 C.3 191 C4191 0
23073 C 26.14 84.58 87.25 C.3 191 C4191 0
23074 H 24.6 83.6 86.6 H 191 C4191 0
23075 H 26.73 83.84 87.33 H 191 C4191 0
23076 H 25.71 84.75 88.08 H 191 C4191 0
23077 C1 26.93 85.83 86.82 C.3 191 C4191 0
23078 O2 27.14 86.73 87.63 O.3 191 C4191 0
23079 O3 27.41 85.93 85.56 O.3 191 C4191 0
23080 C 25.86 83.85 84.98 C.3 191 C4191 0
23081 H 25.2 83.66 84.32 H 191 C4191 0
23082 H 26.42 84.54 84.67 H 191 C4191 0
23083 H 26.37 83.07 85.15 H 191 C4191 0
23084 C 22.1 87.08 85.11 C.3 191 C4191 0
23085 C 23.07 86.69 84.18 C.3 191 C4191 0
23086 H 21.53 87.74 84.72 H 191 C4191 0
23087 H 23.66 87.41 84.01 H 191 C4191 0
23088 H 22.64 86.43 83.37 H 191 C4191 0
23089 C1 23.87 85.5 84.74 C.3 191 C4191 0
23090 O2 24.07 84.51 84.04 O.3 191 C4191 0
23091 O3 24.34 85.53 86.01 O.3 191 C4191 0
23092 C 22.79 87.67 86.36 C.3 191 C4191 0
23093 H 22.13 87.94 86.99 H 191 C4191 0
23094 H 23.35 87.01 86.74 H 191 C4191 0
23095 H 23.31 88.43 86.1 H 191 C4191 0
23096 C 19.03 84.44 86.58 C.3 191 C4191 0
23097 C 20 84.94 87.46 C.3 191 C4191 0
23098 H 18.46 83.84 87.04 H 191 C4191 0
23099 H 20.59 84.23 87.71 H 191 C4191 0
23100 H 19.58 85.28 88.24 H 191 C4191 0
23101 C1 20.8 86.06 86.77 C.3 191 C4191 0
23102 O2 21 87.12 87.37 O.3 191 C4191 0
23103 O3 21.27 85.88 85.51 O.3 191 C4191 0
23104 C 19.72 83.72 85.41 C.3 191 C4191 0
23105 H 19.06 83.39 84.81 H 191 C4191 0
23106 H 20.29 84.33 84.95 H 191 C4191 0
23107 H 20.24 83 85.75 H 191 C4191 0
23108 C 15.96 86.9 84.83 C.3 191 C4191 0
23109 C 16.93 86.32 84.01 C.3 191 C4191 0
23110 H 15.4 87.46 84.31 H 191 C4191 0
23111 H 17.52 86.99 83.69 H 191 C4191 0
23112 H 16.51 85.89 83.27 H 191 C4191 0
23113 C1 17.73 85.28 84.82 C.3 191 C4191 0
23114 O2 17.94 84.16 84.35 O.3 191 C4191 0
23115 O3 18.21 85.59 86.05 O.3 191 C4191 0
23116 C 16.65 87.75 85.91 C.3 191 C4191 0
23117 H 16 88.15 86.47 H 191 C4191 0
23118 H 17.22 87.2 86.44 H 191 C4191 0
23119 H 17.17 88.43 85.5 H 191 C4191 0
23120 C 12.89 84.65 86.84 C.3 191 C4191 0
23121 C 13.87 85.33 87.6 C.3 191 C4191 0
23122 H 12.33 84.16 87.42 H 191 C4191 0
23123 H 14.45 84.7 87.99 H 191 C4191 0
23124 H 13.44 85.83 88.28 H 191 C4191 0
23125 C1 14.66 86.27 86.68 C.3 191 C4191 0
23126 O2 14.87 87.44 87.02 O.3 191 C4191 0
23127 O3 15.14 85.82 85.49 O.3 191 C4191 0
23128 C 13.59 83.69 85.86 C.3 191 C4191 0
23129 H 12.93 83.23 85.35 H 191 C4191 0
23130 H 14.15 84.18 85.28 H 191 C4191 0
23131 H 14.1 83.06 86.35 H 191 C4191 0
23132 C 9.83 86.67 84.59 C.3 191 C4191 0
23133 C 10.8 85.91 83.92 C.3 191 C4191 0
23134 H 9.26 87.09 83.96 H 191 C4191 0
23135 H 11.39 86.5 83.46 H 191 C4191 0
23136 H 10.37 85.33 83.3 H 191 C4191 0
23137 C1 11.59 85.08 84.94 C.3 191 C4191 0
23138 O2 11.8 83.88 84.72 O.3 191 C4191 0
23139 O3 12.07 85.66 86.07 O.3 191 C4191 0
23140 C 10.52 87.73 85.46 C.3 191 C4191 0
23141 H 9.86 88.24 85.92 H 191 C4191 0
23142 H 11.08 87.31 86.1 H 191 C4191 0
23143 H 11.04 88.31 84.91 H 191 C4191 0
23144 C 6.76 84.92 87.05 C.3 191 C4191 0
23145 C 7.73 85.74 87.64 C.3 191 C4191 0
23146 H 6.19 84.56 87.73 H 191 C4191 0
23147 H 8.32 85.21 88.16 H 191 C4191 0
23148 H 7.31 86.38 88.19 H 191 C4191 0
23149 C1 8.53 86.46 86.53 C.3 191 C4191 0
23150 O2 8.73 87.67 86.61 O.3 191 C4191 0
23151 O3 9 85.76 85.47 O.3 191 C4191 0
23152 C 7.45 83.76 86.3 C.3 191 C4191 0
23153 H 6.79 83.2 85.91 H 191 C4191 0
23154 H 8.02 84.11 85.63 H 191 C4191 0
23155 H 7.97 83.25 86.92 H 191 C4191 0
23156 H 3.17 85.95 85.08 H 192 C4192 0
23157 C 3.69 86.38 84.41 C.3 192 C4192 0
23158 C 4.66 85.5 83.92 C.3 192 C4192 0
23159 H 3.13 86.66 83.7 H 192 C4192 0
23160 H 5.25 85.97 83.35 H 192 C4192 0
23161 H 4.24 84.8 83.44 H 192 C4192 0
23162 C1 5.46 84.91 85.1 C.3 192 C4192 0
23163 O2 5.67 83.7 85.16 O.3 192 C4192 0
23164 O3 5.94 85.72 86.08 O.3 192 C4192 0
23165 C 4.38 87.62 85.03 C.3 192 C4192 0
23166 H 3.72 88.21 85.36 H 192 C4192 0
23167 H 4.95 87.34 85.74 H 192 C4192 0
23168 H 4.9 88.05 84.36 H 192 C4192 0
@<TRIPOS>BOND
1 1 2 1
2 1 3 1
3 1 10 1
4 2 6 1
5 2 4 1
6 2 5 1
7 6 7 1
8 6 8 1
9 8 9 1
10 10 13 1
11 10 11 1
12 10 12 1
13 14 16 1
14 14 15 1
15 14 33 1
16 14 22 1
17 15 17 1
18 15 18 1
19 15 19 1
20 19 21 1
21 19 20 1
22 22 24 1
23 22 23 1
24 22 25 1
25 26 28 1
26 26 34 1
27 26 27 1
28 26 45 1
29 27 30 1
30 27 31 1
31 27 29 1
32 31 33 1
33 31 32 1
34 34 37 1
35 34 35 1
36 34 36 1
37 38 39 1
38 38 40 1
39 38 57 1
40 38 46 1
41 39 41 1
42 39 42 1
43 39 43 1
44 43 45 1
45 43 44 1
46 46 48 1
47 46 47 1
48 46 49 1
49 50 58 1
50 50 51 1
51 50 52 1
52 50 69 1
53 51 54 1
54 51 53 1
55 51 55 1
56 55 56 1
57 55 57 1
58 58 59 1
59 58 60 1
60 58 61 1
61 62 64 1
62 62 63 1
63 62 70 1
64 62 81 1
65 63 65 1
66 63 66 1
67 63 67 1
68 67 69 1
69 67 68 1
70 70 73 1
71 70 71 1
72 70 72 1
73 74 82 1
74 74 75 1
75 74 76 1
76 74 93 1
77 75 77 1
78 75 78 1
79 75 79 1
80 79 80 1
81 79 81 1
82 82 84 1
83 82 83 1
84 82 85 1
85 86 88 1
86 86 94 1
87 86 87 1
88 86 105 1
89 87 91 1
90 87 90 1
91 87 89 1
92 91 93 1
93 91 92 1
94 94 95 1
95 94 97 1
96 94 96 1
97 98 100 1
98 98 99 1
99 98 106 1
100 98 117 1
101 99 101 1
102 99 102 1
103 99 103 1
104 103 104 1
105 103 105 1
106 106 108 1
107 106 107 1
108 106 109 1
109 110 112 1
110 110 118 1
111 110 111 1
112 110 129 1
113 111 114 1
114 111 115 1
115 111 113 1
116 115 117 1
117 115 116 1
118 118 119 1
119 118 121 1
120 118 120 1
121 122 124 1
122 122 123 1
123 122 130 1
124 122 141 1
125 123 125 1
126 123 127 1
127 123 126 1
128 127 129 1
129 127 128 1
130 130 132 1
131 130 131 1
132 130 133 1
133 134 153 1
134 134 135 1
135 134 136 1
136 134 142 1
137 135 138 1
138 135 137 1
139 135 139 1
140 139 140 1
141 139 141 1
142 142 145 1
143 142 143 1
144 142 144 1
145 146 148 1
146 146 154 1
147 146 165 1
148 146 147 1
149 147 151 1
150 147 150 1
151 147 149 1
152 151 153 1
153 151 152 1
154 154 156 1
155 154 155 1
156 154 157 1
157 158 177 1
158 158 159 1
159 158 160 1
160 158 166 1
161 159 161 1
162 159 162 1
163 159 163 1
164 163 164 1
165 163 165 1
166 166 168 1
167 166 169 1
168 166 167 1
169 170 178 1
170 170 172 1
171 170 189 1
172 170 171 1
173 171 175 1
174 171 174 1
175 171 173 1
176 175 177 1
177 175 176 1
178 178 180 1
179 178 179 1
180 178 181 1
181 182 201 1
182 182 183 1
183 182 184 1
184 182 190 1
185 183 185 1
186 183 186 1
187 183 187 1
188 187 188 1
189 187 189 1
190 190 191 1
191 190 192 1
192 190 193 1
193 194 202 1
194 194 196 1
195 194 213 1
196 194 195 1
197 195 199 1
198 195 197 1
199 195 198 1
200 199 201 1
201 199 200 1
202 202 205 1
203 202 204 1
204 202 203 1
205 206 208 1
206 206 225 1
207 206 207 1
208 206 214 1
209 207 210 1
210 207 211 1
211 207 209 1
212 211 212 1
213 211 213 1
214 214 216 1
215 214 215 1
216 214 217 1
217 218 219 1
218 218 237 1
219 218 220 1
220 218 226 1
221 219 223 1
222 219 221 1
223 219 222 1
224 223 225 1
225 223 224 1
226 226 227 1
227 226 228 1
228 226 229 1
229 230 232 1
230 230 249 1
231 230 231 1
232 230 238 1
233 231 234 1
234 231 233 1
235 231 235 1
236 235 236 1
237 235 237 1
238 238 239 1
239 238 241 1
240 238 240 1
241 242 243 1
242 242 261 1
243 242 244 1
244 242 250 1
245 243 247 1
246 243 245 1
247 243 246 1
248 247 249 1
249 247 248 1
250 250 252 1
251 250 251 1
252 250 253 1
253 254 262 1
254 254 273 1
255 254 256 1
256 254 255 1
257 255 258 1
258 255 259 1
259 255 257 1
260 259 260 1
261 259 261 1
262 262 265 1
263 262 264 1
264 262 263 1
265 266 268 1
266 266 285 1
267 266 274 1
268 266 267 1
269 267 270 1
270 267 269 1
271 267 271 1
272 271 273 1
273 271 272 1
274 274 275 1
275 274 276 1
276 274 277 1
277 278 279 1
278 278 280 1
279 278 286 1
280 278 297 1
281 279 283 1
282 279 281 1
283 279 282 1
284 283 284 1
285 283 285 1
286 286 287 1
287 286 289 1
288 286 288 1
289 290 292 1
290 290 298 1
291 290 309 1
292 290 291 1
293 291 293 1
294 291 294 1
295 291 295 1
296 295 297 1
297 295 296 1
298 298 301 1
299 298 300 1
300 298 299 1
301 302 303 1
302 302 304 1
303 302 310 1
304 302 321 1
305 303 305 1
306 303 307 1
307 303 306 1
308 307 308 1
309 307 309 1
310 310 311 1
311 310 312 1
312 310 313 1
313 314 322 1
314 314 333 1
315 314 315 1
316 314 316 1
317 315 317 1
318 315 318 1
319 315 319 1
320 319 321 1
321 319 320 1
322 322 323 1
323 322 325 1
324 322 324 1
325 326 328 1
326 326 327 1
327 326 334 1
328 326 345 1
329 327 331 1
330 327 329 1
331 327 330 1
332 331 332 1
333 331 333 1
334 334 335 1
335 334 336 1
336 334 337 1
337 338 346 1
338 338 339 1
339 338 340 1
340 339 342 1
341 339 341 1
342 339 343 1
343 343 345 1
344 343 344 1
345 346 348 1
346 346 349 1
347 346 347 1
348 350 351 1
349 351 352 1
350 351 353 1
351 351 359 1
352 352 356 1
353 352 354 1
354 352 355 1
355 356 357 1
356 356 358 1
357 359 362 1
358 359 360 1
359 359 361 1
360 363 364 1
361 363 365 1
362 363 372 1
363 364 366 1
364 364 367 1
365 364 368 1
366 368 369 1
367 368 370 1
368 370 371 1
369 372 373 1
370 372 375 1
371 372 374 1
372 376 378 1
373 376 384 1
374 376 377 1
375 376 395 1
376 377 381 1
377 377 380 1
378 377 379 1
379 381 382 1
380 381 383 1
381 384 387 1
382 384 386 1
383 384 385 1
384 388 390 1
385 388 389 1
386 388 396 1
387 388 407 1
388 389 392 1
389 389 391 1
390 389 393 1
391 393 394 1
392 393 395 1
393 396 398 1
394 396 397 1
395 396 399 1
396 400 401 1
397 400 402 1
398 400 408 1
399 400 419 1
400 401 404 1
401 401 405 1
402 401 403 1
403 405 407 1
404 405 406 1
405 408 411 1
406 408 409 1
407 408 410 1
408 412 414 1
409 412 420 1
410 412 413 1
411 412 431 1
412 413 416 1
413 413 415 1
414 413 417 1
415 417 418 1
416 417 419 1
417 420 421 1
418 420 423 1
419 420 422 1
420 424 426 1
421 424 425 1
422 424 432 1
423 424 443 1
424 425 427 1
425 425 428 1
426 425 429 1
427 429 431 1
428 429 430 1
429 432 434 1
430 432 433 1
431 432 435 1
432 436 438 1
433 436 444 1
434 436 437 1
435 436 455 1
436 437 439 1
437 437 440 1
438 437 441 1
439 441 443 1
440 441 442 1
441 444 447 1
442 444 445 1
443 444 446 1
444 448 449 1
445 448 450 1
446 448 456 1
447 448 467 1
448 449 451 1
449 449 452 1
450 449 453 1
451 453 455 1
452 453 454 1
453 456 457 1
454 456 458 1
455 456 459 1
456 460 462 1
457 460 468 1
458 460 479 1
459 460 461 1
460 461 465 1
461 461 464 1
462 461 463 1
463 465 467 1
464 465 466 1
465 468 471 1
466 468 469 1
467 468 470 1
468 472 474 1
469 472 473 1
470 472 480 1
471 472 491 1
472 473 475 1
473 473 476 1
474 473 477 1
475 477 479 1
476 477 478 1
477 480 482 1
478 480 481 1
479 480 483 1
480 484 486 1
481 484 492 1
482 484 503 1
483 484 485 1
484 485 489 1
485 485 488 1
486 485 487 1
487 489 491 1
488 489 490 1
489 492 493 1
490 492 494 1
491 492 495 1
492 496 504 1
493 496 497 1
494 496 498 1
495 496 515 1
496 497 499 1
497 497 500 1
498 497 501 1
499 501 503 1
500 501 502 1
501 504 506 1
502 504 507 1
503 504 505 1
504 508 509 1
505 508 527 1
506 508 516 1
507 508 510 1
508 509 511 1
509 509 512 1
510 509 513 1
511 513 514 1
512 513 515 1
513 516 517 1
514 516 518 1
515 516 519 1
516 520 528 1
517 520 522 1
518 520 521 1
519 520 539 1
520 521 524 1
521 521 525 1
522 521 523 1
523 525 527 1
524 525 526 1
525 528 530 1
526 528 531 1
527 528 529 1
528 532 533 1
529 532 534 1
530 532 551 1
531 532 540 1
532 533 535 1
533 533 537 1
534 533 536 1
535 537 538 1
536 537 539 1
537 540 543 1
538 540 541 1
539 540 542 1
540 544 552 1
541 544 546 1
542 544 545 1
543 544 563 1
544 545 548 1
545 545 547 1
546 545 549 1
547 549 551 1
548 549 550 1
549 552 554 1
550 552 555 1
551 552 553 1
552 556 557 1
553 556 575 1
554 556 558 1
555 556 564 1
556 557 559 1
557 557 561 1
558 557 560 1
559 561 562 1
560 561 563 1
561 564 565 1
562 564 567 1
563 564 566 1
564 568 570 1
565 568 569 1
566 568 587 1
567 568 576 1
568 569 571 1
569 569 573 1
570 569 572 1
571 573 575 1
572 573 574 1
573 576 578 1
574 576 579 1
575 576 577 1
576 580 599 1
577 580 582 1
578 580 588 1
579 580 581 1
580 581 584 1
581 581 585 1
582 581 583 1
583 585 586 1
584 585 587 1
585 588 589 1
586 588 590 1
587 588 591 1
588 592 593 1
589 592 594 1
590 592 611 1
591 592 600 1
592 593 595 1
593 593 597 1
594 593 596 1
595 597 599 1
596 597 598 1
597 600 601 1
598 600 603 1
599 600 602 1
600 604 612 1
601 604 623 1
602 604 606 1
603 604 605 1
604 605 608 1
605 605 609 1
606 605 607 1
607 609 610 1
608 609 611 1
609 612 615 1
610 612 614 1
611 612 613 1
612 616 618 1
613 616 635 1
614 616 617 1
615 616 624 1
616 617 620 1
617 617 619 1
618 617 621 1
619 621 623 1
620 621 622 1
621 624 627 1
622 624 625 1
623 624 626 1
624 628 636 1
625 628 647 1
626 628 629 1
627 628 630 1
628 629 631 1
629 629 633 1
630 629 632 1
631 633 634 1
632 633 635 1
633 636 638 1
634 636 639 1
635 636 637 1
636 640 659 1
637 640 642 1
638 640 641 1
639 640 648 1
640 641 644 1
641 641 643 1
642 641 645 1
643 645 647 1
644 645 646 1
645 648 649 1
646 648 650 1
647 648 651 1
648 652 654 1
649 652 653 1
650 652 671 1
651 652 660 1
652 653 655 1
653 653 657 1
654 653 656 1
655 657 658 1
656 657 659 1
657 660 662 1
658 660 663 1
659 660 661 1
660 664 683 1
661 664 672 1
662 664 666 1
663 664 665 1
664 665 667 1
665 665 668 1
666 665 669 1
667 669 671 1
668 669 670 1
669 672 675 1
670 672 673 1
671 672 674 1
672 676 677 1
673 676 678 1
674 676 695 1
675 676 684 1
676 677 679 1
677 677 681 1
678 677 680 1
679 681 682 1
680 681 683 1
681 684 686 1
682 684 685 1
683 684 687 1
684 688 707 1
685 688 696 1
686 688 690 1
687 688 689 1
688 689 691 1
689 689 692 1
690 689 693 1
691 693 694 1
692 693 695 1
693 696 697 1
694 696 698 1
695 696 699 1
696 700 702 1
697 700 701 1
698 700 708 1
699 701 705 1
700 701 704 1
701 701 703 1
702 705 706 1
703 705 707 1
704 708 710 1
705 708 709 1
706 708 711 1
707 712 713 1
708 713 714 1
709 713 715 1
710 713 721 1
711 714 716 1
712 714 717 1
713 714 718 1
714 718 719 1
715 718 720 1
716 721 722 1
717 721 723 1
718 721 724 1
719 725 726 1
720 725 727 1
721 725 734 1
722 726 730 1
723 726 728 1
724 726 729 1
725 730 731 1
726 730 732 1
727 732 733 1
728 734 737 1
729 734 735 1
730 734 736 1
731 738 746 1
732 738 757 1
733 738 739 1
734 738 740 1
735 739 741 1
736 739 742 1
737 739 743 1
738 743 744 1
739 743 745 1
740 746 748 1
741 746 747 1
742 746 749 1
743 750 769 1
744 750 758 1
745 750 751 1
746 750 752 1
747 751 755 1
748 751 753 1
749 751 754 1
750 755 756 1
751 755 757 1
752 758 761 1
753 758 759 1
754 758 760 1
755 762 781 1
756 762 770 1
757 762 763 1
758 762 764 1
759 763 765 1
760 763 766 1
761 763 767 1
762 767 768 1
763 767 769 1
764 770 772 1
765 770 771 1
766 770 773 1
767 774 782 1
768 774 775 1
769 774 776 1
770 774 793 1
771 775 778 1
772 775 779 1
773 775 777 1
774 779 781 1
775 779 780 1
776 782 783 1
777 782 784 1
778 782 785 1
779 786 788 1
780 786 787 1
781 786 794 1
782 786 805 1
783 787 789 1
784 787 790 1
785 787 791 1
786 791 793 1
787 791 792 1
788 794 797 1
789 794 795 1
790 794 796 1
791 798 806 1
792 798 799 1
793 798 800 1
794 798 817 1
795 799 802 1
796 799 801 1
797 799 803 1
798 803 804 1
799 803 805 1
800 806 808 1
801 806 807 1
802 806 809 1
803 810 811 1
804 810 829 1
805 810 812 1
806 810 818 1
807 811 815 1
808 811 814 1
809 811 813 1
810 815 817 1
811 815 816 1
812 818 819 1
813 818 821 1
814 818 820 1
815 822 823 1
816 822 830 1
817 822 824 1
818 822 841 1
819 823 825 1
820 823 826 1
821 823 827 1
822 827 828 1
823 827 829 1
824 830 832 1
825 830 831 1
826 830 833 1
827 834 853 1
828 834 835 1
829 834 836 1
830 834 842 1
831 835 838 1
832 835 839 1
833 835 837 1
834 839 841 1
835 839 840 1
836 842 843 1
837 842 845 1
838 842 844 1
839 846 848 1
840 846 847 1
841 846 854 1
842 846 865 1
843 847 849 1
844 847 850 1
845 847 851 1
846 851 852 1
847 851 853 1
848 854 856 1
849 854 855 1
850 854 857 1
851 858 877 1
852 858 859 1
853 858 860 1
854 858 866 1
855 859 862 1
856 859 861 1
857 859 863 1
858 863 864 1
859 863 865 1
860 866 869 1
861 866 867 1
862 866 868 1
863 870 872 1
864 870 871 1
865 870 878 1
866 870 889 1
867 871 873 1
868 871 875 1
869 871 874 1
870 875 877 1
871 875 876 1
872 878 880 1
873 878 879 1
874 878 881 1
875 882 901 1
876 882 884 1
877 882 883 1
878 882 890 1
879 883 885 1
880 883 886 1
881 883 887 1
882 887 888 1
883 887 889 1
884 890 892 1
885 890 893 1
886 890 891 1
887 894 902 1
888 894 896 1
889 894 913 1
890 894 895 1
891 895 899 1
892 895 898 1
893 895 897 1
894 899 901 1
895 899 900 1
896 902 904 1
897 902 903 1
898 902 905 1
899 906 925 1
900 906 907 1
901 906 908 1
902 906 914 1
903 907 909 1
904 907 910 1
905 907 911 1
906 911 912 1
907 911 913 1
908 914 915 1
909 914 916 1
910 914 917 1
911 918 926 1
912 918 920 1
913 918 937 1
914 918 919 1
915 919 923 1
916 919 921 1
917 919 922 1
918 923 925 1
919 923 924 1
920 926 928 1
921 926 927 1
922 926 929 1
923 930 932 1
924 930 949 1
925 930 931 1
926 930 938 1
927 931 933 1
928 931 934 1
929 931 935 1
930 935 936 1
931 935 937 1
932 938 940 1
933 938 939 1
934 938 941 1
935 942 943 1
936 942 961 1
937 942 944 1
938 942 950 1
939 943 947 1
940 943 945 1
941 943 946 1
942 947 949 1
943 947 948 1
944 950 952 1
945 950 953 1
946 950 951 1
947 954 956 1
948 954 962 1
949 954 973 1
950 954 955 1
951 955 958 1
952 955 957 1
953 955 959 1
954 959 960 1
955 959 961 1
956 962 965 1
957 962 964 1
958 962 963 1
959 966 967 1
960 966 985 1
961 966 968 1
962 966 974 1
963 967 971 1
964 967 969 1
965 967 970 1
966 971 973 1
967 971 972 1
968 974 976 1
969 974 975 1
970 974 977 1
971 978 980 1
972 978 979 1
973 978 986 1
974 978 997 1
975 979 983 1
976 979 981 1
977 979 982 1
978 983 984 1
979 983 985 1
980 986 989 1
981 986 988 1
982 986 987 1
983 990 991 1
984 990 992 1
985 990 1009 1
986 990 998 1
987 991 995 1
988 991 994 1
989 991 993 1
990 995 997 1
991 995 996 1
992 998 999 1
993 998 1000 1
994 998 1001 1
995 1002 1003 1
996 1002 1004 1
997 1002 1010 1
998 1002 1021 1
999 1003 1007 1
1000 1003 1005 1
1001 1003 1006 1
1002 1007 1008 1
1003 1007 1009 1
1004 1010 1011 1
1005 1010 1013 1
1006 1010 1012 1
1007 1014 1016 1
1008 1014 1033 1
1009 1014 1022 1
1010 1014 1015 1
1011 1015 1017 1
1012 1015 1018 1
1013 1015 1019 1
1014 1019 1021 1
1015 1019 1020 1
1016 1022 1024 1
1017 1022 1023 1
1018 1022 1025 1
1019 1026 1027 1
1020 1026 1045 1
1021 1026 1028 1
1022 1026 1034 1
1023 1027 1031 1
1024 1027 1029 1
1025 1027 1030 1
1026 1031 1032 1
1027 1031 1033 1
1028 1034 1035 1
1029 1034 1036 1
1030 1034 1037 1
1031 1038 1046 1
1032 1038 1057 1
1033 1038 1039 1
1034 1038 1040 1
1035 1039 1041 1
1036 1039 1042 1
1037 1039 1043 1
1038 1043 1044 1
1039 1043 1045 1
1040 1046 1049 1
1041 1046 1048 1
1042 1046 1047 1
1043 1050 1052 1
1044 1050 1069 1
1045 1050 1051 1
1046 1050 1058 1
1047 1051 1055 1
1048 1051 1053 1
1049 1051 1054 1
1050 1055 1056 1
1051 1055 1057 1
1052 1058 1061 1
1053 1058 1059 1
1054 1058 1060 1
1055 1062 1070 1
1056 1062 1063 1
1057 1062 1064 1
1058 1063 1066 1
1059 1063 1065 1
1060 1063 1067 1
1061 1067 1068 1
1062 1067 1069 1
1063 1070 1072 1
1064 1070 1073 1
1065 1070 1071 1
1066 1074 1075 1
1067 1075 1076 1
1068 1075 1083 1
1069 1075 1077 1
1070 1076 1080 1
1071 1076 1078 1
1072 1076 1079 1
1073 1080 1081 1
1074 1080 1082 1
1075 1083 1084 1
1076 1083 1086 1
1077 1083 1085 1
1078 1087 1088 1
1079 1087 1089 1
1080 1087 1096 1
1081 1088 1090 1
1082 1088 1091 1
1083 1088 1092 1
1084 1092 1093 1
1085 1092 1094 1
1086 1094 1095 1
1087 1096 1097 1
1088 1096 1098 1
1089 1096 1099 1
1090 1100 1102 1
1091 1100 1108 1
1092 1100 1101 1
1093 1100 1119 1
1094 1101 1103 1
1095 1101 1104 1
1096 1101 1105 1
1097 1105 1107 1
1098 1105 1106 1
1099 1108 1111 1
1100 1108 1110 1
1101 1108 1109 1
1102 1112 1114 1
1103 1112 1113 1
1104 1112 1120 1
1105 1112 1131 1
1106 1113 1116 1
1107 1113 1115 1
1108 1113 1117 1
1109 1117 1118 1
1110 1117 1119 1
1111 1120 1122 1
1112 1120 1121 1
1113 1120 1123 1
1114 1124 1125 1
1115 1124 1126 1
1116 1124 1132 1
1117 1124 1143 1
1118 1125 1127 1
1119 1125 1128 1
1120 1125 1129 1
1121 1129 1131 1
1122 1129 1130 1
1123 1132 1135 1
1124 1132 1133 1
1125 1132 1134 1
1126 1136 1138 1
1127 1136 1144 1
1128 1136 1137 1
1129 1136 1155 1
1130 1137 1140 1
1131 1137 1139 1
1132 1137 1141 1
1133 1141 1142 1
1134 1141 1143 1
1135 1144 1145 1
1136 1144 1147 1
1137 1144 1146 1
1138 1148 1150 1
1139 1148 1149 1
1140 1148 1156 1
1141 1148 1167 1
1142 1149 1151 1
1143 1149 1152 1
1144 1149 1153 1
1145 1153 1155 1
1146 1153 1154 1
1147 1156 1158 1
1148 1156 1159 1
1149 1156 1157 1
1150 1160 1162 1
1151 1160 1168 1
1152 1160 1161 1
1153 1160 1179 1
1154 1161 1163 1
1155 1161 1164 1
1156 1161 1165 1
1157 1165 1166 1
1158 1165 1167 1
1159 1168 1171 1
1160 1168 1169 1
1161 1168 1170 1
1162 1172 1173 1
1163 1172 1174 1
1164 1172 1180 1
1165 1172 1191 1
1166 1173 1175 1
1167 1173 1176 1
1168 1173 1177 1
1169 1177 1179 1
1170 1177 1178 1
1171 1180 1181 1
1172 1180 1182 1
1173 1180 1183 1
1174 1184 1186 1
1175 1184 1185 1
1176 1184 1192 1
1177 1184 1203 1
1178 1185 1187 1
1179 1185 1189 1
1180 1185 1188 1
1181 1189 1191 1
1182 1189 1190 1
1183 1192 1194 1
1184 1192 1195 1
1185 1192 1193 1
1186 1196 1198 1
1187 1196 1197 1
1188 1196 1204 1
1189 1196 1215 1
1190 1197 1199 1
1191 1197 1200 1
1192 1197 1201 1
1193 1201 1203 1
1194 1201 1202 1
1195 1204 1206 1
1196 1204 1205 1
1197 1204 1207 1
1198 1208 1210 1
1199 1208 1216 1
1200 1208 1227 1
1201 1208 1209 1
1202 1209 1213 1
1203 1209 1212 1
1204 1209 1211 1
1205 1213 1215 1
1206 1213 1214 1
1207 1216 1217 1
1208 1216 1218 1
1209 1216 1219 1
1210 1220 1228 1
1211 1220 1222 1
1212 1220 1221 1
1213 1220 1239 1
1214 1221 1224 1
1215 1221 1225 1
1216 1221 1223 1
1217 1225 1227 1
1218 1225 1226 1
1219 1228 1229 1
1220 1228 1230 1
1221 1228 1231 1
1222 1232 1233 1
1223 1232 1251 1
1224 1232 1240 1
1225 1232 1234 1
1226 1233 1237 1
1227 1233 1235 1
1228 1233 1236 1
1229 1237 1239 1
1230 1237 1238 1
1231 1240 1241 1
1232 1240 1242 1
1233 1240 1243 1
1234 1244 1252 1
1235 1244 1246 1
1236 1244 1245 1
1237 1244 1263 1
1238 1245 1248 1
1239 1245 1249 1
1240 1245 1247 1
1241 1249 1251 1
1242 1249 1250 1
1243 1252 1254 1
1244 1252 1255 1
1245 1252 1253 1
1246 1256 1257 1
1247 1256 1275 1
1248 1256 1264 1
1249 1256 1258 1
1250 1257 1259 1
1251 1257 1261 1
1252 1257 1260 1
1253 1261 1262 1
1254 1261 1263 1
1255 1264 1267 1
1256 1264 1265 1
1257 1264 1266 1
1258 1268 1287 1
1259 1268 1269 1
1260 1268 1270 1
1261 1268 1276 1
1262 1269 1272 1
1263 1269 1271 1
1264 1269 1273 1
1265 1273 1275 1
1266 1273 1274 1
1267 1276 1278 1
1268 1276 1279 1
1269 1276 1277 1
1270 1280 1281 1
1271 1280 1299 1
1272 1280 1282 1
1273 1280 1288 1
1274 1281 1283 1
1275 1281 1285 1
1276 1281 1284 1
1277 1285 1286 1
1278 1285 1287 1
1279 1288 1289 1
1280 1288 1291 1
1281 1288 1290 1
1282 1292 1294 1
1283 1292 1293 1
1284 1292 1311 1
1285 1292 1300 1
1286 1293 1295 1
1287 1293 1297 1
1288 1293 1296 1
1289 1297 1299 1
1290 1297 1298 1
1291 1300 1302 1
1292 1300 1301 1
1293 1300 1303 1
1294 1304 1323 1
1295 1304 1306 1
1296 1304 1312 1
1297 1304 1305 1
1298 1305 1308 1
1299 1305 1309 1
1300 1305 1307 1
1301 1309 1310 1
1302 1309 1311 1
1303 1312 1313 1
1304 1312 1314 1
1305 1312 1315 1
1306 1316 1317 1
1307 1316 1318 1
1308 1316 1335 1
1309 1316 1324 1
1310 1317 1319 1
1311 1317 1321 1
1312 1317 1320 1
1313 1321 1323 1
1314 1321 1322 1
1315 1324 1325 1
1316 1324 1327 1
1317 1324 1326 1
1318 1328 1347 1
1319 1328 1330 1
1320 1328 1336 1
1321 1328 1329 1
1322 1329 1332 1
1323 1329 1333 1
1324 1329 1331 1
1325 1333 1334 1
1326 1333 1335 1
1327 1336 1338 1
1328 1336 1337 1
1329 1336 1339 1
1330 1340 1342 1
1331 1340 1359 1
1332 1340 1341 1
1333 1340 1348 1
1334 1341 1344 1
1335 1341 1343 1
1336 1341 1345 1
1337 1345 1347 1
1338 1345 1346 1
1339 1348 1351 1
1340 1348 1349 1
1341 1348 1350 1
1342 1352 1360 1
1343 1352 1371 1
1344 1352 1353 1
1345 1352 1354 1
1346 1353 1356 1
1347 1353 1355 1
1348 1353 1357 1
1349 1357 1358 1
1350 1357 1359 1
1351 1360 1363 1
1352 1360 1361 1
1353 1360 1362 1
1354 1364 1383 1
1355 1364 1366 1
1356 1364 1372 1
1357 1364 1365 1
1358 1365 1368 1
1359 1365 1367 1
1360 1365 1369 1
1361 1369 1371 1
1362 1369 1370 1
1363 1372 1375 1
1364 1372 1373 1
1365 1372 1374 1
1366 1376 1378 1
1367 1376 1377 1
1368 1376 1395 1
1369 1376 1384 1
1370 1377 1379 1
1371 1377 1381 1
1372 1377 1380 1
1373 1381 1382 1
1374 1381 1383 1
1375 1384 1386 1
1376 1384 1387 1
1377 1384 1385 1
1378 1388 1407 1
1379 1388 1396 1
1380 1388 1390 1
1381 1388 1389 1
1382 1389 1391 1
1383 1389 1392 1
1384 1389 1393 1
1385 1393 1395 1
1386 1393 1394 1
1387 1396 1398 1
1388 1396 1399 1
1389 1396 1397 1
1390 1400 1401 1
1391 1400 1402 1
1392 1400 1419 1
1393 1400 1408 1
1394 1401 1403 1
1395 1401 1405 1
1396 1401 1404 1
1397 1405 1406 1
1398 1405 1407 1
1399 1408 1410 1
1400 1408 1409 1
1401 1408 1411 1
1402 1412 1414 1
1403 1412 1413 1
1404 1412 1420 1
1405 1412 1431 1
1406 1413 1415 1
1407 1413 1416 1
1408 1413 1417 1
1409 1417 1418 1
1410 1417 1419 1
1411 1420 1421 1
1412 1420 1422 1
1413 1420 1423 1
1414 1424 1426 1
1415 1424 1425 1
1416 1424 1432 1
1417 1425 1428 1
1418 1425 1429 1
1419 1425 1427 1
1420 1429 1430 1
1421 1429 1431 1
1422 1432 1434 1
1423 1432 1433 1
1424 1432 1435 1
1425 1436 1437 1
1426 1437 1438 1
1427 1437 1439 1
1428 1437 1445 1
1429 1438 1440 1
1430 1438 1441 1
1431 1438 1442 1
1432 1442 1443 1
1433 1442 1444 1
1434 1445 1446 1
1435 1445 1447 1
1436 1445 1448 1
1437 1449 1450 1
1438 1449 1458 1
1439 1449 1451 1
1440 1450 1454 1
1441 1450 1452 1
1442 1450 1453 1
1443 1454 1455 1
1444 1454 1456 1
1445 1456 1457 1
1446 1458 1459 1
1447 1458 1461 1
1448 1458 1460 1
1449 1462 1470 1
1450 1462 1481 1
1451 1462 1463 1
1452 1462 1464 1
1453 1463 1465 1
1454 1463 1466 1
1455 1463 1467 1
1456 1467 1468 1
1457 1467 1469 1
1458 1470 1472 1
1459 1470 1471 1
1460 1470 1473 1
1461 1474 1493 1
1462 1474 1482 1
1463 1474 1475 1
1464 1474 1476 1
1465 1475 1479 1
1466 1475 1477 1
1467 1475 1478 1
1468 1479 1480 1
1469 1479 1481 1
1470 1482 1484 1
1471 1482 1485 1
1472 1482 1483 1
1473 1486 1505 1
1474 1486 1494 1
1475 1486 1487 1
1476 1486 1488 1
1477 1487 1489 1
1478 1487 1490 1
1479 1487 1491 1
1480 1491 1492 1
1481 1491 1493 1
1482 1494 1496 1
1483 1494 1495 1
1484 1494 1497 1
1485 1498 1517 1
1486 1498 1506 1
1487 1498 1499 1
1488 1498 1500 1
1489 1499 1502 1
1490 1499 1503 1
1491 1499 1501 1
1492 1503 1505 1
1493 1503 1504 1
1494 1506 1507 1
1495 1506 1508 1
1496 1506 1509 1
1497 1510 1529 1
1498 1510 1511 1
1499 1510 1518 1
1500 1510 1512 1
1501 1511 1515 1
1502 1511 1514 1
1503 1511 1513 1
1504 1515 1516 1
1505 1515 1517 1
1506 1518 1520 1
1507 1518 1519 1
1508 1518 1521 1
1509 1522 1541 1
1510 1522 1530 1
1511 1522 1523 1
1512 1522 1524 1
1513 1523 1526 1
1514 1523 1525 1
1515 1523 1527 1
1516 1527 1528 1
1517 1527 1529 1
1518 1530 1532 1
1519 1530 1531 1
1520 1530 1533 1
1521 1534 1535 1
1522 1534 1553 1
1523 1534 1536 1
1524 1534 1542 1
1525 1535 1539 1
1526 1535 1538 1
1527 1535 1537 1
1528 1539 1540 1
1529 1539 1541 1
1530 1542 1543 1
1531 1542 1545 1
1532 1542 1544 1
1533 1546 1547 1
1534 1546 1554 1
1535 1546 1565 1
1536 1546 1548 1
1537 1547 1549 1
1538 1547 1550 1
1539 1547 1551 1
1540 1551 1552 1
1541 1551 1553 1
1542 1554 1556 1
1543 1554 1555 1
1544 1554 1557 1
1545 1558 1577 1
1546 1558 1559 1
1547 1558 1560 1
1548 1558 1566 1
1549 1559 1562 1
1550 1559 1563 1
1551 1559 1561 1
1552 1563 1565 1
1553 1563 1564 1
1554 1566 1567 1
1555 1566 1569 1
1556 1566 1568 1
1557 1570 1572 1
1558 1570 1571 1
1559 1570 1578 1
1560 1570 1589 1
1561 1571 1573 1
1562 1571 1574 1
1563 1571 1575 1
1564 1575 1576 1
1565 1575 1577 1
1566 1578 1579 1
1567 1578 1581 1
1568 1578 1580 1
1569 1582 1601 1
1570 1582 1583 1
1571 1582 1584 1
1572 1582 1590 1
1573 1583 1586 1
1574 1583 1585 1
1575 1583 1587 1
1576 1587 1588 1
1577 1587 1589 1
1578 1590 1593 1
1579 1590 1591 1
1580 1590 1592 1
1581 1594 1596 1
1582 1594 1595 1
1583 1594 1602 1
1584 1594 1613 1
1585 1595 1597 1
1586 1595 1599 1
1587 1595 1598 1
1588 1599 1601 1
1589 1599 1600 1
1590 1602 1603 1
1591 1602 1605 1
1592 1602 1604 1
1593 1606 1625 1
1594 1606 1608 1
1595 1606 1607 1
1596 1606 1614 1
1597 1607 1609 1
1598 1607 1610 1
1599 1607 1611 1
1600 1611 1612 1
1601 1611 1613 1
1602 1614 1617 1
1603 1614 1615 1
1604 1614 1616 1
1605 1618 1620 1
1606 1618 1626 1
1607 1618 1637 1
1608 1618 1619 1
1609 1619 1623 1
1610 1619 1622 1
1611 1619 1621 1
1612 1623 1625 1
1613 1623 1624 1
1614 1626 1629 1
1615 1626 1627 1
1616 1626 1628 1
1617 1630 1649 1
1618 1630 1632 1
1619 1630 1631 1
1620 1630 1638 1
1621 1631 1634 1
1622 1631 1635 1
1623 1631 1633 1
1624 1635 1636 1
1625 1635 1637 1
1626 1638 1639 1
1627 1638 1641 1
1628 1638 1640 1
1629 1642 1650 1
1630 1642 1644 1
1631 1642 1661 1
1632 1642 1643 1
1633 1643 1647 1
1634 1643 1645 1
1635 1643 1646 1
1636 1647 1649 1
1637 1647 1648 1
1638 1650 1652 1
1639 1650 1651 1
1640 1650 1653 1
1641 1654 1656 1
1642 1654 1673 1
1643 1654 1655 1
1644 1654 1662 1
1645 1655 1657 1
1646 1655 1658 1
1647 1655 1659 1
1648 1659 1660 1
1649 1659 1661 1
1650 1662 1663 1
1651 1662 1665 1
1652 1662 1664 1
1653 1666 1674 1
1654 1666 1668 1
1655 1666 1685 1
1656 1666 1667 1
1657 1667 1671 1
1658 1667 1669 1
1659 1667 1670 1
1660 1671 1673 1
1661 1671 1672 1
1662 1674 1676 1
1663 1674 1677 1
1664 1674 1675 1
1665 1678 1680 1
1666 1678 1686 1
1667 1678 1679 1
1668 1678 1697 1
1669 1679 1682 1
1670 1679 1681 1
1671 1679 1683 1
1672 1683 1684 1
1673 1683 1685 1
1674 1686 1689 1
1675 1686 1688 1
1676 1686 1687 1
1677 1690 1691 1
1678 1690 1709 1
1679 1690 1692 1
1680 1690 1698 1
1681 1691 1695 1
1682 1691 1693 1
1683 1691 1694 1
1684 1695 1697 1
1685 1695 1696 1
1686 1698 1700 1
1687 1698 1699 1
1688 1698 1701 1
1689 1702 1704 1
1690 1702 1721 1
1691 1702 1703 1
1692 1702 1710 1
1693 1703 1707 1
1694 1703 1705 1
1695 1703 1706 1
1696 1707 1708 1
1697 1707 1709 1
1698 1710 1713 1
1699 1710 1712 1
1700 1710 1711 1
1701 1714 1715 1
1702 1714 1716 1
1703 1714 1733 1
1704 1714 1722 1
1705 1715 1717 1
1706 1715 1719 1
1707 1715 1718 1
1708 1719 1721 1
1709 1719 1720 1
1710 1722 1723 1
1711 1722 1724 1
1712 1722 1725 1
1713 1726 1745 1
1714 1726 1727 1
1715 1726 1728 1
1716 1726 1734 1
1717 1727 1731 1
1718 1727 1729 1
1719 1727 1730 1
1720 1731 1732 1
1721 1731 1733 1
1722 1734 1735 1
1723 1734 1737 1
1724 1734 1736 1
1725 1738 1740 1
1726 1738 1757 1
1727 1738 1746 1
1728 1738 1739 1
1729 1739 1741 1
1730 1739 1742 1
1731 1739 1743 1
1732 1743 1744 1
1733 1743 1745 1
1734 1746 1748 1
1735 1746 1747 1
1736 1746 1749 1
1737 1750 1751 1
1738 1750 1769 1
1739 1750 1752 1
1740 1750 1758 1
1741 1751 1755 1
1742 1751 1753 1
1743 1751 1754 1
1744 1755 1756 1
1745 1755 1757 1
1746 1758 1759 1
1747 1758 1760 1
1748 1758 1761 1
1749 1762 1770 1
1750 1762 1781 1
1751 1762 1763 1
1752 1762 1764 1
1753 1763 1765 1
1754 1763 1766 1
1755 1763 1767 1
1756 1767 1768 1
1757 1767 1769 1
1758 1770 1773 1
1759 1770 1772 1
1760 1770 1771 1
1761 1774 1776 1
1762 1774 1793 1
1763 1774 1775 1
1764 1774 1782 1
1765 1775 1779 1
1766 1775 1777 1
1767 1775 1778 1
1768 1779 1780 1
1769 1779 1781 1
1770 1782 1785 1
1771 1782 1783 1
1772 1782 1784 1
1773 1786 1794 1
1774 1786 1787 1
1775 1786 1788 1
1776 1787 1790 1
1777 1787 1789 1
1778 1787 1791 1
1779 1791 1792 1
1780 1791 1793 1
1781 1794 1797 1
1782 1794 1795 1
1783 1794 1796 1
1784 1798 1799 1
1785 1799 1800 1
1786 1799 1807 1
1787 1799 1801 1
1788 1800 1804 1
1789 1800 1802 1
1790 1800 1803 1
1791 1804 1805 1
1792 1804 1806 1
1793 1807 1808 1
1794 1807 1810 1
1795 1807 1809 1
1796 1811 1812 1
1797 1811 1813 1
1798 1811 1820 1
1799 1812 1814 1
1800 1812 1815 1
1801 1812 1816 1
1802 1816 1817 1
1803 1816 1818 1
1804 1818 1819 1
1805 1820 1821 1
1806 1820 1822 1
1807 1820 1823 1
1808 1824 1826 1
1809 1824 1825 1
1810 1824 1843 1
1811 1824 1832 1
1812 1825 1827 1
1813 1825 1828 1
1814 1825 1829 1
1815 1829 1831 1
1816 1829 1830 1
1817 1832 1834 1
1818 1832 1833 1
1819 1832 1835 1
1820 1836 1838 1
1821 1836 1844 1
1822 1836 1837 1
1823 1836 1855 1
1824 1837 1840 1
1825 1837 1839 1
1826 1837 1841 1
1827 1841 1842 1
1828 1841 1843 1
1829 1844 1847 1
1830 1844 1846 1
1831 1844 1845 1
1832 1848 1849 1
1833 1848 1850 1
1834 1848 1856 1
1835 1848 1867 1
1836 1849 1851 1
1837 1849 1852 1
1838 1849 1853 1
1839 1853 1855 1
1840 1853 1854 1
1841 1856 1859 1
1842 1856 1857 1
1843 1856 1858 1
1844 1860 1862 1
1845 1860 1868 1
1846 1860 1861 1
1847 1860 1879 1
1848 1861 1864 1
1849 1861 1863 1
1850 1861 1865 1
1851 1865 1866 1
1852 1865 1867 1
1853 1868 1869 1
1854 1868 1871 1
1855 1868 1870 1
1856 1872 1874 1
1857 1872 1873 1
1858 1872 1880 1
1859 1872 1891 1
1860 1873 1875 1
1861 1873 1876 1
1862 1873 1877 1
1863 1877 1879 1
1864 1877 1878 1
1865 1880 1883 1
1866 1880 1881 1
1867 1880 1882 1
1868 1884 1886 1
1869 1884 1892 1
1870 1884 1885 1
1871 1884 1903 1
1872 1885 1887 1
1873 1885 1888 1
1874 1885 1889 1
1875 1889 1890 1
1876 1889 1891 1
1877 1892 1894 1
1878 1892 1895 1
1879 1892 1893 1
1880 1896 1897 1
1881 1896 1898 1
1882 1896 1904 1
1883 1896 1915 1
1884 1897 1899 1
1885 1897 1900 1
1886 1897 1901 1
1887 1901 1903 1
1888 1901 1902 1
1889 1904 1905 1
1890 1904 1906 1
1891 1904 1907 1
1892 1908 1910 1
1893 1908 1909 1
1894 1908 1916 1
1895 1908 1927 1
1896 1909 1911 1
1897 1909 1912 1
1898 1909 1913 1
1899 1913 1915 1
1900 1913 1914 1
1901 1916 1918 1
1902 1916 1919 1
1903 1916 1917 1
1904 1920 1922 1
1905 1920 1921 1
1906 1920 1928 1
1907 1920 1939 1
1908 1921 1923 1
1909 1921 1924 1
1910 1921 1925 1
1911 1925 1927 1
1912 1925 1926 1
1913 1928 1930 1
1914 1928 1929 1
1915 1928 1931 1
1916 1932 1934 1
1917 1932 1940 1
1918 1932 1951 1
1919 1932 1933 1
1920 1933 1937 1
1921 1933 1936 1
1922 1933 1935 1
1923 1937 1939 1
1924 1937 1938 1
1925 1940 1941 1
1926 1940 1942 1
1927 1940 1943 1
1928 1944 1952 1
1929 1944 1946 1
1930 1944 1945 1
1931 1944 1963 1
1932 1945 1948 1
1933 1945 1949 1
1934 1945 1947 1
1935 1949 1951 1
1936 1949 1950 1
1937 1952 1953 1
1938 1952 1954 1
1939 1952 1955 1
1940 1956 1958 1
1941 1956 1964 1
1942 1956 1975 1
1943 1956 1957 1
1944 1957 1961 1
1945 1957 1960 1
1946 1957 1959 1
1947 1961 1963 1
1948 1961 1962 1
1949 1964 1965 1
1950 1964 1966 1
1951 1964 1967 1
1952 1968 1976 1
1953 1968 1970 1
1954 1968 1969 1
1955 1968 1987 1
1956 1969 1971 1
1957 1969 1972 1
1958 1969 1973 1
1959 1973 1975 1
1960 1973 1974 1
1961 1976 1978 1
1962 1976 1979 1
1963 1976 1977 1
1964 1980 1981 1
1965 1980 1999 1
1966 1980 1988 1
1967 1980 1982 1
1968 1981 1985 1
1969 1981 1983 1
1970 1981 1984 1
1971 1985 1987 1
1972 1985 1986 1
1973 1988 1991 1
1974 1988 1989 1
1975 1988 1990 1
1976 1992 2011 1
1977 1992 1993 1
1978 1992 1994 1
1979 1992 2000 1
1980 1993 1995 1
1981 1993 1997 1
1982 1993 1996 1
1983 1997 1999 1
1984 1997 1998 1
1985 2000 2001 1
1986 2000 2002 1
1987 2000 2003 1
1988 2004 2005 1
1989 2004 2023 1
1990 2004 2006 1
1991 2004 2012 1
1992 2005 2007 1
1993 2005 2009 1
1994 2005 2008 1
1995 2009 2010 1
1996 2009 2011 1
1997 2012 2013 1
1998 2012 2015 1
1999 2012 2014 1
2000 2016 2018 1
2001 2016 2017 1
2002 2016 2035 1
2003 2016 2024 1
2004 2017 2019 1
2005 2017 2020 1
2006 2017 2021 1
2007 2021 2022 1
2008 2021 2023 1
2009 2024 2026 1
2010 2024 2025 1
2011 2024 2027 1
2012 2028 2047 1
2013 2028 2030 1
2014 2028 2036 1
2015 2028 2029 1
2016 2029 2032 1
2017 2029 2033 1
2018 2029 2031 1
2019 2033 2034 1
2020 2033 2035 1
2021 2036 2037 1
2022 2036 2038 1
2023 2036 2039 1
2024 2040 2042 1
2025 2040 2059 1
2026 2040 2041 1
2027 2040 2048 1
2028 2041 2044 1
2029 2041 2045 1
2030 2041 2043 1
2031 2045 2046 1
2032 2045 2047 1
2033 2048 2049 1
2034 2048 2051 1
2035 2048 2050 1
2036 2052 2071 1
2037 2052 2054 1
2038 2052 2060 1
2039 2052 2053 1
2040 2053 2056 1
2041 2053 2057 1
2042 2053 2055 1
2043 2057 2058 1
2044 2057 2059 1
2045 2060 2062 1
2046 2060 2061 1
2047 2060 2063 1
2048 2064 2066 1
2049 2064 2083 1
2050 2064 2065 1
2051 2064 2072 1
2052 2065 2068 1
2053 2065 2069 1
2054 2065 2067 1
2055 2069 2070 1
2056 2069 2071 1
2057 2072 2075 1
2058 2072 2073 1
2059 2072 2074 1
2060 2076 2084 1
2061 2076 2078 1
2062 2076 2095 1
2063 2076 2077 1
2064 2077 2080 1
2065 2077 2079 1
2066 2077 2081 1
2067 2081 2082 1
2068 2081 2083 1
2069 2084 2087 1
2070 2084 2085 1
2071 2084 2086 1
2072 2088 2107 1
2073 2088 2096 1
2074 2088 2090 1
2075 2088 2089 1
2076 2089 2093 1
2077 2089 2092 1
2078 2089 2091 1
2079 2093 2094 1
2080 2093 2095 1
2081 2096 2099 1
2082 2096 2097 1
2083 2096 2098 1
2084 2100 2108 1
2085 2100 2119 1
2086 2100 2102 1
2087 2100 2101 1
2088 2101 2103 1
2089 2101 2104 1
2090 2101 2105 1
2091 2105 2106 1
2092 2105 2107 1
2093 2108 2110 1
2094 2108 2111 1
2095 2108 2109 1
2096 2112 2113 1
2097 2112 2114 1
2098 2112 2120 1
2099 2112 2131 1
2100 2113 2115 1
2101 2113 2116 1
2102 2113 2117 1
2103 2117 2118 1
2104 2117 2119 1
2105 2120 2121 1
2106 2120 2122 1
2107 2120 2123 1
2108 2124 2125 1
2109 2124 2126 1
2110 2124 2143 1
2111 2124 2132 1
2112 2125 2127 1
2113 2125 2128 1
2114 2125 2129 1
2115 2129 2130 1
2116 2129 2131 1
2117 2132 2134 1
2118 2132 2133 1
2119 2132 2135 1
2120 2136 2138 1
2121 2136 2137 1
2122 2136 2144 1
2123 2136 2155 1
2124 2137 2139 1
2125 2137 2140 1
2126 2137 2141 1
2127 2141 2143 1
2128 2141 2142 1
2129 2144 2145 1
2130 2144 2146 1
2131 2144 2147 1
2132 2148 2150 1
2133 2148 2149 1
2134 2148 2156 1
2135 2149 2152 1
2136 2149 2151 1
2137 2149 2153 1
2138 2153 2155 1
2139 2153 2154 1
2140 2156 2158 1
2141 2156 2157 1
2142 2156 2159 1
2143 2160 2161 1
2144 2161 2162 1
2145 2161 2163 1
2146 2161 2169 1
2147 2162 2164 1
2148 2162 2165 1
2149 2162 2166 1
2150 2166 2167 1
2151 2166 2168 1
2152 2169 2170 1
2153 2169 2171 1
2154 2169 2172 1
2155 2173 2182 1
2156 2173 2174 1
2157 2173 2175 1
2158 2174 2176 1
2159 2174 2177 1
2160 2174 2178 1
2161 2178 2179 1
2162 2178 2180 1
2163 2180 2181 1
2164 2182 2183 1
2165 2182 2185 1
2166 2182 2184 1
2167 2186 2194 1
2168 2186 2205 1
2169 2186 2187 1
2170 2186 2188 1
2171 2187 2189 1
2172 2187 2190 1
2173 2187 2191 1
2174 2191 2192 1
2175 2191 2193 1
2176 2194 2196 1
2177 2194 2195 1
2178 2194 2197 1
2179 2198 2217 1
2180 2198 2206 1
2181 2198 2200 1
2182 2198 2199 1
2183 2199 2202 1
2184 2199 2201 1
2185 2199 2203 1
2186 2203 2204 1
2187 2203 2205 1
2188 2206 2208 1
2189 2206 2207 1
2190 2206 2209 1
2191 2210 2211 1
2192 2210 2229 1
2193 2210 2218 1
2194 2210 2212 1
2195 2211 2215 1
2196 2211 2214 1
2197 2211 2213 1
2198 2215 2216 1
2199 2215 2217 1
2200 2218 2220 1
2201 2218 2219 1
2202 2218 2221 1
2203 2222 2241 1
2204 2222 2230 1
2205 2222 2223 1
2206 2222 2224 1
2207 2223 2227 1
2208 2223 2226 1
2209 2223 2225 1
2210 2227 2229 1
2211 2227 2228 1
2212 2230 2231 1
2213 2230 2232 1
2214 2230 2233 1
2215 2234 2253 1
2216 2234 2235 1
2217 2234 2242 1
2218 2234 2236 1
2219 2235 2239 1
2220 2235 2238 1
2221 2235 2237 1
2222 2239 2240 1
2223 2239 2241 1
2224 2242 2244 1
2225 2242 2243 1
2226 2242 2245 1
2227 2246 2265 1
2228 2246 2254 1
2229 2246 2247 1
2230 2246 2248 1
2231 2247 2250 1
2232 2247 2251 1
2233 2247 2249 1
2234 2251 2253 1
2235 2251 2252 1
2236 2254 2256 1
2237 2254 2255 1
2238 2254 2257 1
2239 2258 2259 1
2240 2258 2277 1
2241 2258 2266 1
2242 2258 2260 1
2243 2259 2262 1
2244 2259 2263 1
2245 2259 2261 1
2246 2263 2265 1
2247 2263 2264 1
2248 2266 2268 1
2249 2266 2267 1
2250 2266 2269 1
2251 2270 2271 1
2252 2270 2289 1
2253 2270 2278 1
2254 2270 2272 1
2255 2271 2274 1
2256 2271 2273 1
2257 2271 2275 1
2258 2275 2276 1
2259 2275 2277 1
2260 2278 2281 1
2261 2278 2279 1
2262 2278 2280 1
2263 2282 2301 1
2264 2282 2283 1
2265 2282 2284 1
2266 2282 2290 1
2267 2283 2285 1
2268 2283 2286 1
2269 2283 2287 1
2270 2287 2289 1
2271 2287 2288 1
2272 2290 2291 1
2273 2290 2293 1
2274 2290 2292 1
2275 2294 2295 1
2276 2294 2313 1
2277 2294 2302 1
2278 2294 2296 1
2279 2295 2297 1
2280 2295 2298 1
2281 2295 2299 1
2282 2299 2300 1
2283 2299 2301 1
2284 2302 2303 1
2285 2302 2305 1
2286 2302 2304 1
2287 2306 2325 1
2288 2306 2307 1
2289 2306 2308 1
2290 2306 2314 1
2291 2307 2310 1
2292 2307 2309 1
2293 2307 2311 1
2294 2311 2313 1
2295 2311 2312 1
2296 2314 2317 1
2297 2314 2315 1
2298 2314 2316 1
2299 2318 2320 1
2300 2318 2319 1
2301 2318 2337 1
2302 2318 2326 1
2303 2319 2321 1
2304 2319 2323 1
2305 2319 2322 1
2306 2323 2324 1
2307 2323 2325 1
2308 2326 2327 1
2309 2326 2329 1
2310 2326 2328 1
2311 2330 2332 1
2312 2330 2331 1
2313 2330 2349 1
2314 2330 2338 1
2315 2331 2333 1
2316 2331 2334 1
2317 2331 2335 1
2318 2335 2337 1
2319 2335 2336 1
2320 2338 2341 1
2321 2338 2339 1
2322 2338 2340 1
2323 2342 2344 1
2324 2342 2361 1
2325 2342 2350 1
2326 2342 2343 1
2327 2343 2347 1
2328 2343 2346 1
2329 2343 2345 1
2330 2347 2349 1
2331 2347 2348 1
2332 2350 2353 1
2333 2350 2351 1
2334 2350 2352 1
2335 2354 2356 1
2336 2354 2355 1
2337 2354 2373 1
2338 2354 2362 1
2339 2355 2358 1
2340 2355 2359 1
2341 2355 2357 1
2342 2359 2361 1
2343 2359 2360 1
2344 2362 2363 1
2345 2362 2365 1
2346 2362 2364 1
2347 2366 2368 1
2348 2366 2374 1
2349 2366 2385 1
2350 2366 2367 1
2351 2367 2371 1
2352 2367 2369 1
2353 2367 2370 1
2354 2371 2373 1
2355 2371 2372 1
2356 2374 2375 1
2357 2374 2377 1
2358 2374 2376 1
2359 2378 2380 1
2360 2378 2386 1
2361 2378 2379 1
2362 2378 2397 1
2363 2379 2381 1
2364 2379 2382 1
2365 2379 2383 1
2366 2383 2384 1
2367 2383 2385 1
2368 2386 2388 1
2369 2386 2389 1
2370 2386 2387 1
2371 2390 2398 1
2372 2390 2392 1
2373 2390 2409 1
2374 2390 2391 1
2375 2391 2394 1
2376 2391 2395 1
2377 2391 2393 1
2378 2395 2397 1
2379 2395 2396 1
2380 2398 2400 1
2381 2398 2401 1
2382 2398 2399 1
2383 2402 2403 1
2384 2402 2404 1
2385 2402 2421 1
2386 2402 2410 1
2387 2403 2405 1
2388 2403 2407 1
2389 2403 2406 1
2390 2407 2408 1
2391 2407 2409 1
2392 2410 2413 1
2393 2410 2412 1
2394 2410 2411 1
2395 2414 2415 1
2396 2414 2433 1
2397 2414 2416 1
2398 2414 2422 1
2399 2415 2419 1
2400 2415 2417 1
2401 2415 2418 1
2402 2419 2421 1
2403 2419 2420 1
2404 2422 2424 1
2405 2422 2425 1
2406 2422 2423 1
2407 2426 2428 1
2408 2426 2445 1
2409 2426 2427 1
2410 2426 2434 1
2411 2427 2431 1
2412 2427 2429 1
2413 2427 2430 1
2414 2431 2432 1
2415 2431 2433 1
2416 2434 2437 1
2417 2434 2435 1
2418 2434 2436 1
2419 2438 2439 1
2420 2438 2440 1
2421 2438 2457 1
2422 2438 2446 1
2423 2439 2441 1
2424 2439 2443 1
2425 2439 2442 1
2426 2443 2445 1
2427 2443 2444 1
2428 2446 2447 1
2429 2446 2448 1
2430 2446 2449 1
2431 2450 2469 1
2432 2450 2451 1
2433 2450 2452 1
2434 2450 2458 1
2435 2451 2455 1
2436 2451 2453 1
2437 2451 2454 1
2438 2455 2456 1
2439 2455 2457 1
2440 2458 2459 1
2441 2458 2461 1
2442 2458 2460 1
2443 2462 2464 1
2444 2462 2463 1
2445 2462 2481 1
2446 2462 2470 1
2447 2463 2467 1
2448 2463 2465 1
2449 2463 2466 1
2450 2467 2468 1
2451 2467 2469 1
2452 2470 2472 1
2453 2470 2473 1
2454 2470 2471 1
2455 2474 2493 1
2456 2474 2476 1
2457 2474 2475 1
2458 2474 2482 1
2459 2475 2477 1
2460 2475 2478 1
2461 2475 2479 1
2462 2479 2480 1
2463 2479 2481 1
2464 2482 2483 1
2465 2482 2484 1
2466 2482 2485 1
2467 2486 2494 1
2468 2486 2488 1
2469 2486 2505 1
2470 2486 2487 1
2471 2487 2489 1
2472 2487 2490 1
2473 2487 2491 1
2474 2491 2492 1
2475 2491 2493 1
2476 2494 2497 1
2477 2494 2496 1
2478 2494 2495 1
2479 2498 2517 1
2480 2498 2506 1
2481 2498 2500 1
2482 2498 2499 1
2483 2499 2501 1
2484 2499 2502 1
2485 2499 2503 1
2486 2503 2504 1
2487 2503 2505 1
2488 2506 2509 1
2489 2506 2507 1
2490 2506 2508 1
2491 2510 2518 1
2492 2510 2511 1
2493 2510 2512 1
2494 2511 2514 1
2495 2511 2513 1
2496 2511 2515 1
2497 2515 2516 1
2498 2515 2517 1
2499 2518 2521 1
2500 2518 2519 1
2501 2518 2520 1
2502 2522 2523 1
2503 2523 2531 1
2504 2523 2524 1
2505 2523 2525 1
2506 2524 2526 1
2507 2524 2527 1
2508 2524 2528 1
2509 2528 2529 1
2510 2528 2530 1
2511 2531 2532 1
2512 2531 2533 1
2513 2531 2534 1
2514 2535 2536 1
2515 2535 2537 1
2516 2535 2544 1
2517 2536 2538 1
2518 2536 2539 1
2519 2536 2540 1
2520 2540 2541 1
2521 2540 2542 1
2522 2542 2543 1
2523 2544 2545 1
2524 2544 2546 1
2525 2544 2547 1
2526 2548 2550 1
2527 2548 2549 1
2528 2548 2567 1
2529 2548 2556 1
2530 2549 2551 1
2531 2549 2552 1
2532 2549 2553 1
2533 2553 2555 1
2534 2553 2554 1
2535 2556 2558 1
2536 2556 2557 1
2537 2556 2559 1
2538 2560 2562 1
2539 2560 2568 1
2540 2560 2561 1
2541 2560 2579 1
2542 2561 2564 1
2543 2561 2563 1
2544 2561 2565 1
2545 2565 2566 1
2546 2565 2567 1
2547 2568 2571 1
2548 2568 2569 1
2549 2568 2570 1
2550 2572 2573 1
2551 2572 2574 1
2552 2572 2580 1
2553 2572 2591 1
2554 2573 2575 1
2555 2573 2576 1
2556 2573 2577 1
2557 2577 2579 1
2558 2577 2578 1
2559 2580 2583 1
2560 2580 2581 1
2561 2580 2582 1
2562 2584 2586 1
2563 2584 2592 1
2564 2584 2585 1
2565 2584 2603 1
2566 2585 2588 1
2567 2585 2587 1
2568 2585 2589 1
2569 2589 2590 1
2570 2589 2591 1
2571 2592 2593 1
2572 2592 2595 1
2573 2592 2594 1
2574 2596 2598 1
2575 2596 2597 1
2576 2596 2604 1
2577 2596 2615 1
2578 2597 2599 1
2579 2597 2600 1
2580 2597 2601 1
2581 2601 2603 1
2582 2601 2602 1
2583 2604 2607 1
2584 2604 2605 1
2585 2604 2606 1
2586 2608 2610 1
2587 2608 2616 1
2588 2608 2609 1
2589 2608 2627 1
2590 2609 2611 1
2591 2609 2612 1
2592 2609 2613 1
2593 2613 2614 1
2594 2613 2615 1
2595 2616 2618 1
2596 2616 2619 1
2597 2616 2617 1
2598 2620 2621 1
2599 2620 2622 1
2600 2620 2628 1
2601 2620 2639 1
2602 2621 2623 1
2603 2621 2624 1
2604 2621 2625 1
2605 2625 2627 1
2606 2625 2626 1
2607 2628 2629 1
2608 2628 2630 1
2609 2628 2631 1
2610 2632 2634 1
2611 2632 2633 1
2612 2632 2640 1
2613 2632 2651 1
2614 2633 2635 1
2615 2633 2636 1
2616 2633 2637 1
2617 2637 2639 1
2618 2637 2638 1
2619 2640 2642 1
2620 2640 2641 1
2621 2640 2643 1
2622 2644 2646 1
2623 2644 2652 1
2624 2644 2645 1
2625 2644 2663 1
2626 2645 2648 1
2627 2645 2649 1
2628 2645 2647 1
2629 2649 2651 1
2630 2649 2650 1
2631 2652 2654 1
2632 2652 2653 1
2633 2652 2655 1
2634 2656 2658 1
2635 2656 2664 1
2636 2656 2675 1
2637 2656 2657 1
2638 2657 2661 1
2639 2657 2660 1
2640 2657 2659 1
2641 2661 2663 1
2642 2661 2662 1
2643 2664 2665 1
2644 2664 2666 1
2645 2664 2667 1
2646 2668 2676 1
2647 2668 2670 1
2648 2668 2669 1
2649 2668 2687 1
2650 2669 2672 1
2651 2669 2673 1
2652 2669 2671 1
2653 2673 2675 1
2654 2673 2674 1
2655 2676 2679 1
2656 2676 2677 1
2657 2676 2678 1
2658 2680 2682 1
2659 2680 2688 1
2660 2680 2699 1
2661 2680 2681 1
2662 2681 2685 1
2663 2681 2684 1
2664 2681 2683 1
2665 2685 2687 1
2666 2685 2686 1
2667 2688 2689 1
2668 2688 2690 1
2669 2688 2691 1
2670 2692 2711 1
2671 2692 2693 1
2672 2692 2694 1
2673 2692 2700 1
2674 2693 2695 1
2675 2693 2696 1
2676 2693 2697 1
2677 2697 2699 1
2678 2697 2698 1
2679 2700 2702 1
2680 2700 2703 1
2681 2700 2701 1
2682 2704 2712 1
2683 2704 2706 1
2684 2704 2723 1
2685 2704 2705 1
2686 2705 2709 1
2687 2705 2707 1
2688 2705 2708 1
2689 2709 2711 1
2690 2709 2710 1
2691 2712 2715 1
2692 2712 2713 1
2693 2712 2714 1
2694 2716 2735 1
2695 2716 2717 1
2696 2716 2718 1
2697 2716 2724 1
2698 2717 2719 1
2699 2717 2720 1
2700 2717 2721 1
2701 2721 2722 1
2702 2721 2723 1
2703 2724 2725 1
2704 2724 2726 1
2705 2724 2727 1
2706 2728 2729 1
2707 2728 2747 1
2708 2728 2730 1
2709 2728 2736 1
2710 2729 2733 1
2711 2729 2731 1
2712 2729 2732 1
2713 2733 2735 1
2714 2733 2734 1
2715 2736 2737 1
2716 2736 2739 1
2717 2736 2738 1
2718 2740 2742 1
2719 2740 2741 1
2720 2740 2759 1
2721 2740 2748 1
2722 2741 2743 1
2723 2741 2744 1
2724 2741 2745 1
2725 2745 2746 1
2726 2745 2747 1
2727 2748 2750 1
2728 2748 2749 1
2729 2748 2751 1
2730 2752 2753 1
2731 2752 2771 1
2732 2752 2754 1
2733 2752 2760 1
2734 2753 2757 1
2735 2753 2755 1
2736 2753 2756 1
2737 2757 2759 1
2738 2757 2758 1
2739 2760 2761 1
2740 2760 2762 1
2741 2760 2763 1
2742 2764 2766 1
2743 2764 2783 1
2744 2764 2765 1
2745 2764 2772 1
2746 2765 2768 1
2747 2765 2767 1
2748 2765 2769 1
2749 2769 2770 1
2750 2769 2771 1
2751 2772 2773 1
2752 2772 2775 1
2753 2772 2774 1
2754 2776 2795 1
2755 2776 2778 1
2756 2776 2784 1
2757 2776 2777 1
2758 2777 2780 1
2759 2777 2781 1
2760 2777 2779 1
2761 2781 2782 1
2762 2781 2783 1
2763 2784 2786 1
2764 2784 2785 1
2765 2784 2787 1
2766 2788 2790 1
2767 2788 2796 1
2768 2788 2807 1
2769 2788 2789 1
2770 2789 2792 1
2771 2789 2793 1
2772 2789 2791 1
2773 2793 2794 1
2774 2793 2795 1
2775 2796 2799 1
2776 2796 2797 1
2777 2796 2798 1
2778 2800 2802 1
2779 2800 2819 1
2780 2800 2808 1
2781 2800 2801 1
2782 2801 2804 1
2783 2801 2803 1
2784 2801 2805 1
2785 2805 2806 1
2786 2805 2807 1
2787 2808 2809 1
2788 2808 2810 1
2789 2808 2811 1
2790 2812 2831 1
2791 2812 2820 1
2792 2812 2814 1
2793 2812 2813 1
2794 2813 2817 1
2795 2813 2816 1
2796 2813 2815 1
2797 2817 2818 1
2798 2817 2819 1
2799 2820 2823 1
2800 2820 2822 1
2801 2820 2821 1
2802 2824 2832 1
2803 2824 2843 1
2804 2824 2826 1
2805 2824 2825 1
2806 2825 2827 1
2807 2825 2828 1
2808 2825 2829 1
2809 2829 2831 1
2810 2829 2830 1
2811 2832 2835 1
2812 2832 2834 1
2813 2832 2833 1
2814 2836 2837 1
2815 2836 2838 1
2816 2836 2844 1
2817 2836 2855 1
2818 2837 2839 1
2819 2837 2840 1
2820 2837 2841 1
2821 2841 2842 1
2822 2841 2843 1
2823 2844 2845 1
2824 2844 2846 1
2825 2844 2847 1
2826 2848 2849 1
2827 2848 2850 1
2828 2848 2867 1
2829 2848 2856 1
2830 2849 2851 1
2831 2849 2852 1
2832 2849 2853 1
2833 2853 2855 1
2834 2853 2854 1
2835 2856 2858 1
2836 2856 2857 1
2837 2856 2859 1
2838 2860 2862 1
2839 2860 2861 1
2840 2860 2868 1
2841 2860 2879 1
2842 2861 2863 1
2843 2861 2865 1
2844 2861 2864 1
2845 2865 2866 1
2846 2865 2867 1
2847 2868 2869 1
2848 2868 2870 1
2849 2868 2871 1
2850 2872 2874 1
2851 2872 2873 1
2852 2872 2880 1
2853 2873 2876 1
2854 2873 2875 1
2855 2873 2877 1
2856 2877 2879 1
2857 2877 2878 1
2858 2880 2882 1
2859 2880 2881 1
2860 2880 2883 1
2861 2884 2885 1
2862 2885 2886 1
2863 2885 2887 1
2864 2885 2893 1
2865 2886 2888 1
2866 2886 2889 1
2867 2886 2890 1
2868 2890 2891 1
2869 2890 2892 1
2870 2893 2894 1
2871 2893 2895 1
2872 2893 2896 1
2873 2897 2906 1
2874 2897 2899 1
2875 2897 2898 1
2876 2898 2902 1
2877 2898 2901 1
2878 2898 2900 1
2879 2902 2903 1
2880 2902 2904 1
2881 2904 2905 1
2882 2906 2909 1
2883 2906 2907 1
2884 2906 2908 1
2885 2910 2912 1
2886 2910 2911 1
2887 2910 2929 1
2888 2910 2918 1
2889 2911 2913 1
2890 2911 2914 1
2891 2911 2915 1
2892 2915 2916 1
2893 2915 2917 1
2894 2918 2919 1
2895 2918 2920 1
2896 2918 2921 1
2897 2922 2923 1
2898 2922 2924 1
2899 2922 2930 1
2900 2922 2941 1
2901 2923 2927 1
2902 2923 2926 1
2903 2923 2925 1
2904 2927 2929 1
2905 2927 2928 1
2906 2930 2933 1
2907 2930 2931 1
2908 2930 2932 1
2909 2934 2936 1
2910 2934 2935 1
2911 2934 2953 1
2912 2934 2942 1
2913 2935 2938 1
2914 2935 2937 1
2915 2935 2939 1
2916 2939 2940 1
2917 2939 2941 1
2918 2942 2943 1
2919 2942 2944 1
2920 2942 2945 1
2921 2946 2947 1
2922 2946 2954 1
2923 2946 2948 1
2924 2946 2965 1
2925 2947 2950 1
2926 2947 2949 1
2927 2947 2951 1
2928 2951 2953 1
2929 2951 2952 1
2930 2954 2955 1
2931 2954 2956 1
2932 2954 2957 1
2933 2958 2960 1
2934 2958 2959 1
2935 2958 2966 1
2936 2958 2977 1
2937 2959 2961 1
2938 2959 2962 1
2939 2959 2963 1
2940 2963 2964 1
2941 2963 2965 1
2942 2966 2969 1
2943 2966 2967 1
2944 2966 2968 1
2945 2970 2978 1
2946 2970 2971 1
2947 2970 2972 1
2948 2970 2989 1
2949 2971 2974 1
2950 2971 2973 1
2951 2971 2975 1
2952 2975 2977 1
2953 2975 2976 1
2954 2978 2980 1
2955 2978 2979 1
2956 2978 2981 1
2957 2982 2990 1
2958 2982 2984 1
2959 2982 2983 1
2960 2982 3001 1
2961 2983 2986 1
2962 2983 2987 1
2963 2983 2985 1
2964 2987 2989 1
2965 2987 2988 1
2966 2990 2993 1
2967 2990 2991 1
2968 2990 2992 1
2969 2994 2996 1
2970 2994 3002 1
2971 2994 2995 1
2972 2994 3013 1
2973 2995 2997 1
2974 2995 2998 1
2975 2995 2999 1
2976 2999 3001 1
2977 2999 3000 1
2978 3002 3003 1
2979 3002 3004 1
2980 3002 3005 1
2981 3006 3008 1
2982 3006 3014 1
2983 3006 3007 1
2984 3006 3025 1
2985 3007 3011 1
2986 3007 3010 1
2987 3007 3009 1
2988 3011 3013 1
2989 3011 3012 1
2990 3014 3017 1
2991 3014 3015 1
2992 3014 3016 1
2993 3018 3026 1
2994 3018 3020 1
2995 3018 3019 1
2996 3018 3037 1
2997 3019 3021 1
2998 3019 3023 1
2999 3019 3022 1
3000 3023 3025 1
3001 3023 3024 1
3002 3026 3028 1
3003 3026 3027 1
3004 3026 3029 1
3005 3030 3031 1
3006 3030 3049 1
3007 3030 3032 1
3008 3030 3038 1
3009 3031 3033 1
3010 3031 3034 1
3011 3031 3035 1
3012 3035 3036 1
3013 3035 3037 1
3014 3038 3039 1
3015 3038 3040 1
3016 3038 3041 1
3017 3042 3050 1
3018 3042 3044 1
3019 3042 3061 1
3020 3042 3043 1
3021 3043 3046 1
3022 3043 3047 1
3023 3043 3045 1
3024 3047 3049 1
3025 3047 3048 1
3026 3050 3052 1
3027 3050 3051 1
3028 3050 3053 1
3029 3054 3055 1
3030 3054 3073 1
3031 3054 3056 1
3032 3054 3062 1
3033 3055 3057 1
3034 3055 3058 1
3035 3055 3059 1
3036 3059 3060 1
3037 3059 3061 1
3038 3062 3064 1
3039 3062 3063 1
3040 3062 3065 1
3041 3066 3068 1
3042 3066 3074 1
3043 3066 3085 1
3044 3066 3067 1
3045 3067 3070 1
3046 3067 3071 1
3047 3067 3069 1
3048 3071 3073 1
3049 3071 3072 1
3050 3074 3076 1
3051 3074 3075 1
3052 3074 3077 1
3053 3078 3079 1
3054 3078 3080 1
3055 3078 3097 1
3056 3078 3086 1
3057 3079 3081 1
3058 3079 3082 1
3059 3079 3083 1
3060 3083 3084 1
3061 3083 3085 1
3062 3086 3089 1
3063 3086 3087 1
3064 3086 3088 1
3065 3090 3092 1
3066 3090 3098 1
3067 3090 3109 1
3068 3090 3091 1
3069 3091 3093 1
3070 3091 3094 1
3071 3091 3095 1
3072 3095 3097 1
3073 3095 3096 1
3074 3098 3100 1
3075 3098 3101 1
3076 3098 3099 1
3077 3102 3104 1
3078 3102 3121 1
3079 3102 3103 1
3080 3102 3110 1
3081 3103 3106 1
3082 3103 3107 1
3083 3103 3105 1
3084 3107 3108 1
3085 3107 3109 1
3086 3110 3113 1
3087 3110 3111 1
3088 3110 3112 1
3089 3114 3115 1
3090 3114 3116 1
3091 3114 3133 1
3092 3114 3122 1
3093 3115 3117 1
3094 3115 3119 1
3095 3115 3118 1
3096 3119 3121 1
3097 3119 3120 1
3098 3122 3123 1
3099 3122 3125 1
3100 3122 3124 1
3101 3126 3128 1
3102 3126 3145 1
3103 3126 3127 1
3104 3126 3134 1
3105 3127 3130 1
3106 3127 3129 1
3107 3127 3131 1
3108 3131 3132 1
3109 3131 3133 1
3110 3134 3135 1
3111 3134 3136 1
3112 3134 3137 1
3113 3138 3140 1
3114 3138 3139 1
3115 3138 3157 1
3116 3138 3146 1
3117 3139 3141 1
3118 3139 3143 1
3119 3139 3142 1
3120 3143 3145 1
3121 3143 3144 1
3122 3146 3149 1
3123 3146 3147 1
3124 3146 3148 1
3125 3150 3158 1
3126 3150 3169 1
3127 3150 3152 1
3128 3150 3151 1
3129 3151 3153 1
3130 3151 3154 1
3131 3151 3155 1
3132 3155 3156 1
3133 3155 3157 1
3134 3158 3160 1
3135 3158 3161 1
3136 3158 3159 1
3137 3162 3164 1
3138 3162 3181 1
3139 3162 3170 1
3140 3162 3163 1
3141 3163 3166 1
3142 3163 3165 1
3143 3163 3167 1
3144 3167 3169 1
3145 3167 3168 1
3146 3170 3171 1
3147 3170 3173 1
3148 3170 3172 1
3149 3174 3176 1
3150 3174 3175 1
3151 3174 3182 1
3152 3174 3193 1
3153 3175 3177 1
3154 3175 3179 1
3155 3175 3178 1
3156 3179 3180 1
3157 3179 3181 1
3158 3182 3183 1
3159 3182 3184 1
3160 3182 3185 1
3161 3186 3188 1
3162 3186 3194 1
3163 3186 3205 1
3164 3186 3187 1
3165 3187 3190 1
3166 3187 3189 1
3167 3187 3191 1
3168 3191 3193 1
3169 3191 3192 1
3170 3194 3197 1
3171 3194 3196 1
3172 3194 3195 1
3173 3198 3199 1
3174 3198 3200 1
3175 3198 3206 1
3176 3198 3217 1
3177 3199 3201 1
3178 3199 3203 1
3179 3199 3202 1
3180 3203 3204 1
3181 3203 3205 1
3182 3206 3208 1
3183 3206 3207 1
3184 3206 3209 1
3185 3210 3229 1
3186 3210 3218 1
3187 3210 3211 1
3188 3210 3212 1
3189 3211 3214 1
3190 3211 3213 1
3191 3211 3215 1
3192 3215 3217 1
3193 3215 3216 1
3194 3218 3219 1
3195 3218 3221 1
3196 3218 3220 1
3197 3222 3224 1
3198 3222 3223 1
3199 3222 3230 1
3200 3222 3241 1
3201 3223 3227 1
3202 3223 3225 1
3203 3223 3226 1
3204 3227 3228 1
3205 3227 3229 1
3206 3230 3232 1
3207 3230 3231 1
3208 3230 3233 1
3209 3234 3242 1
3210 3234 3236 1
3211 3234 3235 1
3212 3235 3237 1
3213 3235 3238 1
3214 3235 3239 1
3215 3239 3240 1
3216 3239 3241 1
3217 3242 3244 1
3218 3242 3245 1
3219 3242 3243 1
3220 3246 3247 1
3221 3247 3255 1
3222 3247 3249 1
3223 3247 3248 1
3224 3248 3252 1
3225 3248 3250 1
3226 3248 3251 1
3227 3252 3253 1
3228 3252 3254 1
3229 3255 3258 1
3230 3255 3256 1
3231 3255 3257 1
3232 3259 3261 1
3233 3259 3260 1
3234 3259 3268 1
3235 3260 3263 1
3236 3260 3262 1
3237 3260 3264 1
3238 3264 3266 1
3239 3264 3265 1
3240 3266 3267 1
3241 3268 3270 1
3242 3268 3269 1
3243 3268 3271 1
3244 3272 3274 1
3245 3272 3273 1
3246 3272 3280 1
3247 3272 3291 1
3248 3273 3277 1
3249 3273 3276 1
3250 3273 3275 1
3251 3277 3278 1
3252 3277 3279 1
3253 3280 3283 1
3254 3280 3281 1
3255 3280 3282 1
3256 3284 3285 1
3257 3284 3286 1
3258 3284 3292 1
3259 3284 3303 1
3260 3285 3287 1
3261 3285 3288 1
3262 3285 3289 1
3263 3289 3291 1
3264 3289 3290 1
3265 3292 3294 1
3266 3292 3293 1
3267 3292 3295 1
3268 3296 3298 1
3269 3296 3297 1
3270 3296 3304 1
3271 3296 3315 1
3272 3297 3300 1
3273 3297 3301 1
3274 3297 3299 1
3275 3301 3302 1
3276 3301 3303 1
3277 3304 3305 1
3278 3304 3307 1
3279 3304 3306 1
3280 3308 3309 1
3281 3308 3310 1
3282 3308 3316 1
3283 3308 3327 1
3284 3309 3311 1
3285 3309 3312 1
3286 3309 3313 1
3287 3313 3315 1
3288 3313 3314 1
3289 3316 3317 1
3290 3316 3319 1
3291 3316 3318 1
3292 3320 3322 1
3293 3320 3321 1
3294 3320 3328 1
3295 3320 3339 1
3296 3321 3323 1
3297 3321 3324 1
3298 3321 3325 1
3299 3325 3326 1
3300 3325 3327 1
3301 3328 3330 1
3302 3328 3329 1
3303 3328 3331 1
3304 3332 3334 1
3305 3332 3340 1
3306 3332 3333 1
3307 3332 3351 1
3308 3333 3336 1
3309 3333 3335 1
3310 3333 3337 1
3311 3337 3339 1
3312 3337 3338 1
3313 3340 3343 1
3314 3340 3341 1
3315 3340 3342 1
3316 3344 3352 1
3317 3344 3345 1
3318 3344 3346 1
3319 3344 3363 1
3320 3345 3348 1
3321 3345 3347 1
3322 3345 3349 1
3323 3349 3350 1
3324 3349 3351 1
3325 3352 3353 1
3326 3352 3354 1
3327 3352 3355 1
3328 3356 3358 1
3329 3356 3364 1
3330 3356 3375 1
3331 3356 3357 1
3332 3357 3360 1
3333 3357 3361 1
3334 3357 3359 1
3335 3361 3363 1
3336 3361 3362 1
3337 3364 3365 1
3338 3364 3367 1
3339 3364 3366 1
3340 3368 3370 1
3341 3368 3369 1
3342 3368 3376 1
3343 3368 3387 1
3344 3369 3371 1
3345 3369 3372 1
3346 3369 3373 1
3347 3373 3374 1
3348 3373 3375 1
3349 3376 3378 1
3350 3376 3377 1
3351 3376 3379 1
3352 3380 3388 1
3353 3380 3382 1
3354 3380 3399 1
3355 3380 3381 1
3356 3381 3384 1
3357 3381 3385 1
3358 3381 3383 1
3359 3385 3387 1
3360 3385 3386 1
3361 3388 3391 1
3362 3388 3389 1
3363 3388 3390 1
3364 3392 3393 1
3365 3392 3394 1
3366 3392 3400 1
3367 3392 3411 1
3368 3393 3395 1
3369 3393 3396 1
3370 3393 3397 1
3371 3397 3399 1
3372 3397 3398 1
3373 3400 3402 1
3374 3400 3401 1
3375 3400 3403 1
3376 3404 3423 1
3377 3404 3405 1
3378 3404 3412 1
3379 3404 3406 1
3380 3405 3407 1
3381 3405 3408 1
3382 3405 3409 1
3383 3409 3410 1
3384 3409 3411 1
3385 3412 3413 1
3386 3412 3414 1
3387 3412 3415 1
3388 3416 3418 1
3389 3416 3424 1
3390 3416 3417 1
3391 3416 3435 1
3392 3417 3421 1
3393 3417 3420 1
3394 3417 3419 1
3395 3421 3423 1
3396 3421 3422 1
3397 3424 3426 1
3398 3424 3427 1
3399 3424 3425 1
3400 3428 3429 1
3401 3428 3430 1
3402 3428 3447 1
3403 3428 3436 1
3404 3429 3431 1
3405 3429 3433 1
3406 3429 3432 1
3407 3433 3434 1
3408 3433 3435 1
3409 3436 3437 1
3410 3436 3438 1
3411 3436 3439 1
3412 3440 3442 1
3413 3440 3448 1
3414 3440 3441 1
3415 3440 3459 1
3416 3441 3444 1
3417 3441 3445 1
3418 3441 3443 1
3419 3445 3447 1
3420 3445 3446 1
3421 3448 3451 1
3422 3448 3450 1
3423 3448 3449 1
3424 3452 3454 1
3425 3452 3453 1
3426 3452 3471 1
3427 3452 3460 1
3428 3453 3455 1
3429 3453 3457 1
3430 3453 3456 1
3431 3457 3458 1
3432 3457 3459 1
3433 3460 3461 1
3434 3460 3462 1
3435 3460 3463 1
3436 3464 3466 1
3437 3464 3465 1
3438 3464 3483 1
3439 3464 3472 1
3440 3465 3467 1
3441 3465 3469 1
3442 3465 3468 1
3443 3469 3471 1
3444 3469 3470 1
3445 3472 3475 1
3446 3472 3474 1
3447 3472 3473 1
3448 3476 3478 1
3449 3476 3495 1
3450 3476 3484 1
3451 3476 3477 1
3452 3477 3480 1
3453 3477 3479 1
3454 3477 3481 1
3455 3481 3482 1
3456 3481 3483 1
3457 3484 3485 1
3458 3484 3487 1
3459 3484 3486 1
3460 3488 3489 1
3461 3488 3490 1
3462 3488 3507 1
3463 3488 3496 1
3464 3489 3491 1
3465 3489 3493 1
3466 3489 3492 1
3467 3493 3495 1
3468 3493 3494 1
3469 3496 3497 1
3470 3496 3498 1
3471 3496 3499 1
3472 3500 3502 1
3473 3500 3508 1
3474 3500 3519 1
3475 3500 3501 1
3476 3501 3503 1
3477 3501 3504 1
3478 3501 3505 1
3479 3505 3506 1
3480 3505 3507 1
3481 3508 3511 1
3482 3508 3510 1
3483 3508 3509 1
3484 3512 3514 1
3485 3512 3531 1
3486 3512 3513 1
3487 3512 3520 1
3488 3513 3515 1
3489 3513 3516 1
3490 3513 3517 1
3491 3517 3519 1
3492 3517 3518 1
3493 3520 3522 1
3494 3520 3521 1
3495 3520 3523 1
3496 3524 3532 1
3497 3524 3543 1
3498 3524 3525 1
3499 3524 3526 1
3500 3525 3529 1
3501 3525 3527 1
3502 3525 3528 1
3503 3529 3530 1
3504 3529 3531 1
3505 3532 3535 1
3506 3532 3534 1
3507 3532 3533 1
3508 3536 3538 1
3509 3536 3555 1
3510 3536 3537 1
3511 3536 3544 1
3512 3537 3539 1
3513 3537 3540 1
3514 3537 3541 1
3515 3541 3543 1
3516 3541 3542 1
3517 3544 3545 1
3518 3544 3546 1
3519 3544 3547 1
3520 3548 3550 1
3521 3548 3549 1
3522 3548 3567 1
3523 3548 3556 1
3524 3549 3553 1
3525 3549 3551 1
3526 3549 3552 1
3527 3553 3554 1
3528 3553 3555 1
3529 3556 3558 1
3530 3556 3559 1
3531 3556 3557 1
3532 3560 3568 1
3533 3560 3579 1
3534 3560 3561 1
3535 3560 3562 1
3536 3561 3563 1
3537 3561 3564 1
3538 3561 3565 1
3539 3565 3567 1
3540 3565 3566 1
3541 3568 3571 1
3542 3568 3569 1
3543 3568 3570 1
3544 3572 3573 1
3545 3572 3574 1
3546 3572 3591 1
3547 3572 3580 1
3548 3573 3575 1
3549 3573 3577 1
3550 3573 3576 1
3551 3577 3578 1
3552 3577 3579 1
3553 3580 3581 1
3554 3580 3582 1
3555 3580 3583 1
3556 3584 3592 1
3557 3584 3603 1
3558 3584 3586 1
3559 3584 3585 1
3560 3585 3588 1
3561 3585 3587 1
3562 3585 3589 1
3563 3589 3591 1
3564 3589 3590 1
3565 3592 3594 1
3566 3592 3593 1
3567 3592 3595 1
3568 3596 3598 1
3569 3596 3597 1
3570 3596 3604 1
3571 3597 3601 1
3572 3597 3600 1
3573 3597 3599 1
3574 3601 3602 1
3575 3601 3603 1
3576 3604 3606 1
3577 3604 3605 1
3578 3604 3607 1
3579 3608 3609 1
3580 3609 3611 1
3581 3609 3610 1
3582 3609 3617 1
3583 3610 3612 1
3584 3610 3613 1
3585 3610 3614 1
3586 3614 3616 1
3587 3614 3615 1
3588 3617 3619 1
3589 3617 3618 1
3590 3617 3620 1
3591 3621 3630 1
3592 3621 3623 1
3593 3621 3622 1
3594 3622 3626 1
3595 3622 3625 1
3596 3622 3624 1
3597 3626 3627 1
3598 3626 3628 1
3599 3628 3629 1
3600 3630 3633 1
3601 3630 3631 1
3602 3630 3632 1
3603 3634 3653 1
3604 3634 3642 1
3605 3634 3636 1
3606 3634 3635 1
3607 3635 3637 1
3608 3635 3638 1
3609 3635 3639 1
3610 3639 3640 1
3611 3639 3641 1
3612 3642 3643 1
3613 3642 3644 1
3614 3642 3645 1
3615 3646 3665 1
3616 3646 3647 1
3617 3646 3654 1
3618 3646 3648 1
3619 3647 3651 1
3620 3647 3649 1
3621 3647 3650 1
3622 3651 3652 1
3623 3651 3653 1
3624 3654 3657 1
3625 3654 3655 1
3626 3654 3656 1
3627 3658 3677 1
3628 3658 3666 1
3629 3658 3659 1
3630 3658 3660 1
3631 3659 3662 1
3632 3659 3661 1
3633 3659 3663 1
3634 3663 3664 1
3635 3663 3665 1
3636 3666 3667 1
3637 3666 3668 1
3638 3666 3669 1
3639 3670 3671 1
3640 3670 3678 1
3641 3670 3672 1
3642 3670 3689 1
3643 3671 3675 1
3644 3671 3674 1
3645 3671 3673 1
3646 3675 3677 1
3647 3675 3676 1
3648 3678 3679 1
3649 3678 3680 1
3650 3678 3681 1
3651 3682 3684 1
3652 3682 3683 1
3653 3682 3690 1
3654 3682 3701 1
3655 3683 3685 1
3656 3683 3686 1
3657 3683 3687 1
3658 3687 3689 1
3659 3687 3688 1
3660 3690 3693 1
3661 3690 3691 1
3662 3690 3692 1
3663 3694 3702 1
3664 3694 3695 1
3665 3694 3696 1
3666 3694 3713 1
3667 3695 3698 1
3668 3695 3697 1
3669 3695 3699 1
3670 3699 3701 1
3671 3699 3700 1
3672 3702 3704 1
3673 3702 3703 1
3674 3702 3705 1
3675 3706 3725 1
3676 3706 3707 1
3677 3706 3708 1
3678 3706 3714 1
3679 3707 3710 1
3680 3707 3711 1
3681 3707 3709 1
3682 3711 3713 1
3683 3711 3712 1
3684 3714 3717 1
3685 3714 3715 1
3686 3714 3716 1
3687 3718 3726 1
3688 3718 3719 1
3689 3718 3720 1
3690 3718 3737 1
3691 3719 3721 1
3692 3719 3722 1
3693 3719 3723 1
3694 3723 3725 1
3695 3723 3724 1
3696 3726 3728 1
3697 3726 3727 1
3698 3726 3729 1
3699 3730 3731 1
3700 3730 3749 1
3701 3730 3732 1
3702 3730 3738 1
3703 3731 3735 1
3704 3731 3734 1
3705 3731 3733 1
3706 3735 3737 1
3707 3735 3736 1
3708 3738 3741 1
3709 3738 3739 1
3710 3738 3740 1
3711 3742 3750 1
3712 3742 3744 1
3713 3742 3743 1
3714 3742 3761 1
3715 3743 3745 1
3716 3743 3746 1
3717 3743 3747 1
3718 3747 3749 1
3719 3747 3748 1
3720 3750 3752 1
3721 3750 3751 1
3722 3750 3753 1
3723 3754 3755 1
3724 3754 3773 1
3725 3754 3756 1
3726 3754 3762 1
3727 3755 3757 1
3728 3755 3758 1
3729 3755 3759 1
3730 3759 3760 1
3731 3759 3761 1
3732 3762 3763 1
3733 3762 3765 1
3734 3762 3764 1
3735 3766 3774 1
3736 3766 3768 1
3737 3766 3767 1
3738 3766 3785 1
3739 3767 3769 1
3740 3767 3771 1
3741 3767 3770 1
3742 3771 3773 1
3743 3771 3772 1
3744 3774 3776 1
3745 3774 3775 1
3746 3774 3777 1
3747 3778 3780 1
3748 3778 3779 1
3749 3778 3797 1
3750 3778 3786 1
3751 3779 3781 1
3752 3779 3782 1
3753 3779 3783 1
3754 3783 3784 1
3755 3783 3785 1
3756 3786 3788 1
3757 3786 3787 1
3758 3786 3789 1
3759 3790 3792 1
3760 3790 3798 1
3761 3790 3809 1
3762 3790 3791 1
3763 3791 3794 1
3764 3791 3795 1
3765 3791 3793 1
3766 3795 3797 1
3767 3795 3796 1
3768 3798 3800 1
3769 3798 3799 1
3770 3798 3801 1
3771 3802 3803 1
3772 3802 3804 1
3773 3802 3821 1
3774 3802 3810 1
3775 3803 3805 1
3776 3803 3806 1
3777 3803 3807 1
3778 3807 3808 1
3779 3807 3809 1
3780 3810 3813 1
3781 3810 3811 1
3782 3810 3812 1
3783 3814 3816 1
3784 3814 3822 1
3785 3814 3833 1
3786 3814 3815 1
3787 3815 3817 1
3788 3815 3818 1
3789 3815 3819 1
3790 3819 3821 1
3791 3819 3820 1
3792 3822 3824 1
3793 3822 3823 1
3794 3822 3825 1
3795 3826 3828 1
3796 3826 3845 1
3797 3826 3827 1
3798 3826 3834 1
3799 3827 3830 1
3800 3827 3829 1
3801 3827 3831 1
3802 3831 3832 1
3803 3831 3833 1
3804 3834 3837 1
3805 3834 3835 1
3806 3834 3836 1
3807 3838 3839 1
3808 3838 3840 1
3809 3838 3857 1
3810 3838 3846 1
3811 3839 3841 1
3812 3839 3843 1
3813 3839 3842 1
3814 3843 3845 1
3815 3843 3844 1
3816 3846 3849 1
3817 3846 3848 1
3818 3846 3847 1
3819 3850 3852 1
3820 3850 3858 1
3821 3850 3869 1
3822 3850 3851 1
3823 3851 3854 1
3824 3851 3853 1
3825 3851 3855 1
3826 3855 3856 1
3827 3855 3857 1
3828 3858 3860 1
3829 3858 3861 1
3830 3858 3859 1
3831 3862 3864 1
3832 3862 3863 1
3833 3862 3881 1
3834 3862 3870 1
3835 3863 3865 1
3836 3863 3867 1
3837 3863 3866 1
3838 3867 3869 1
3839 3867 3868 1
3840 3870 3873 1
3841 3870 3871 1
3842 3870 3872 1
3843 3874 3876 1
3844 3874 3875 1
3845 3874 3882 1
3846 3874 3893 1
3847 3875 3877 1
3848 3875 3879 1
3849 3875 3878 1
3850 3879 3880 1
3851 3879 3881 1
3852 3882 3884 1
3853 3882 3885 1
3854 3882 3883 1
3855 3886 3888 1
3856 3886 3887 1
3857 3886 3905 1
3858 3886 3894 1
3859 3887 3891 1
3860 3887 3890 1
3861 3887 3889 1
3862 3891 3893 1
3863 3891 3892 1
3864 3894 3895 1
3865 3894 3897 1
3866 3894 3896 1
3867 3898 3900 1
3868 3898 3899 1
3869 3898 3906 1
3870 3898 3917 1
3871 3899 3901 1
3872 3899 3903 1
3873 3899 3902 1
3874 3903 3904 1
3875 3903 3905 1
3876 3906 3907 1
3877 3906 3908 1
3878 3906 3909 1
3879 3910 3912 1
3880 3910 3929 1
3881 3910 3918 1
3882 3910 3911 1
3883 3911 3914 1
3884 3911 3913 1
3885 3911 3915 1
3886 3915 3917 1
3887 3915 3916 1
3888 3918 3920 1
3889 3918 3919 1
3890 3918 3921 1
3891 3922 3923 1
3892 3922 3924 1
3893 3922 3941 1
3894 3922 3930 1
3895 3923 3927 1
3896 3923 3925 1
3897 3923 3926 1
3898 3927 3928 1
3899 3927 3929 1
3900 3930 3932 1
3901 3930 3931 1
3902 3930 3933 1
3903 3934 3953 1
3904 3934 3942 1
3905 3934 3935 1
3906 3934 3936 1
3907 3935 3938 1
3908 3935 3937 1
3909 3935 3939 1
3910 3939 3940 1
3911 3939 3941 1
3912 3942 3945 1
3913 3942 3943 1
3914 3942 3944 1
3915 3946 3948 1
3916 3946 3954 1
3917 3946 3965 1
3918 3946 3947 1
3919 3947 3951 1
3920 3947 3949 1
3921 3947 3950 1
3922 3951 3952 1
3923 3951 3953 1
3924 3954 3957 1
3925 3954 3955 1
3926 3954 3956 1
3927 3958 3966 1
3928 3958 3960 1
3929 3958 3959 1
3930 3959 3961 1
3931 3959 3962 1
3932 3959 3963 1
3933 3963 3964 1
3934 3963 3965 1
3935 3966 3968 1
3936 3966 3969 1
3937 3966 3967 1
3938 3970 3971 1
3939 3971 3979 1
3940 3971 3972 1
3941 3971 3973 1
3942 3972 3976 1
3943 3972 3974 1
3944 3972 3975 1
3945 3976 3977 1
3946 3976 3978 1
3947 3979 3982 1
3948 3979 3980 1
3949 3979 3981 1
3950 3983 3985 1
3951 3983 3984 1
3952 3983 3992 1
3953 3984 3987 1
3954 3984 3986 1
3955 3984 3988 1
3956 3988 3990 1
3957 3988 3989 1
3958 3990 3991 1
3959 3992 3994 1
3960 3992 3993 1
3961 3992 3995 1
3962 3996 3998 1
3963 3996 3997 1
3964 3996 4004 1
3965 3996 4015 1
3966 3997 3999 1
3967 3997 4000 1
3968 3997 4001 1
3969 4001 4002 1
3970 4001 4003 1
3971 4004 4007 1
3972 4004 4005 1
3973 4004 4006 1
3974 4008 4009 1
3975 4008 4010 1
3976 4008 4016 1
3977 4008 4027 1
3978 4009 4011 1
3979 4009 4012 1
3980 4009 4013 1
3981 4013 4015 1
3982 4013 4014 1
3983 4016 4018 1
3984 4016 4017 1
3985 4016 4019 1
3986 4020 4022 1
3987 4020 4021 1
3988 4020 4028 1
3989 4020 4039 1
3990 4021 4024 1
3991 4021 4023 1
3992 4021 4025 1
3993 4025 4026 1
3994 4025 4027 1
3995 4028 4029 1
3996 4028 4031 1
3997 4028 4030 1
3998 4032 4033 1
3999 4032 4034 1
4000 4032 4040 1
4001 4032 4051 1
4002 4033 4035 1
4003 4033 4036 1
4004 4033 4037 1
4005 4037 4039 1
4006 4037 4038 1
4007 4040 4041 1
4008 4040 4043 1
4009 4040 4042 1
4010 4044 4046 1
4011 4044 4045 1
4012 4044 4052 1
4013 4044 4063 1
4014 4045 4047 1
4015 4045 4048 1
4016 4045 4049 1
4017 4049 4050 1
4018 4049 4051 1
4019 4052 4054 1
4020 4052 4055 1
4021 4052 4053 1
4022 4056 4058 1
4023 4056 4064 1
4024 4056 4057 1
4025 4056 4075 1
4026 4057 4060 1
4027 4057 4059 1
4028 4057 4061 1
4029 4061 4063 1
4030 4061 4062 1
4031 4064 4067 1
4032 4064 4065 1
4033 4064 4066 1
4034 4068 4076 1
4035 4068 4069 1
4036 4068 4070 1
4037 4068 4087 1
4038 4069 4072 1
4039 4069 4071 1
4040 4069 4073 1
4041 4073 4074 1
4042 4073 4075 1
4043 4076 4077 1
4044 4076 4078 1
4045 4076 4079 1
4046 4080 4082 1
4047 4080 4088 1
4048 4080 4081 1
4049 4080 4099 1
4050 4081 4083 1
4051 4081 4085 1
4052 4081 4084 1
4053 4085 4087 1
4054 4085 4086 1
4055 4088 4089 1
4056 4088 4090 1
4057 4088 4091 1
4058 4092 4094 1
4059 4092 4093 1
4060 4092 4100 1
4061 4092 4111 1
4062 4093 4095 1
4063 4093 4096 1
4064 4093 4097 1
4065 4097 4099 1
4066 4097 4098 1
4067 4100 4102 1
4068 4100 4101 1
4069 4100 4103 1
4070 4104 4112 1
4071 4104 4106 1
4072 4104 4123 1
4073 4104 4105 1
4074 4105 4108 1
4075 4105 4109 1
4076 4105 4107 1
4077 4109 4111 1
4078 4109 4110 1
4079 4112 4115 1
4080 4112 4113 1
4081 4112 4114 1
4082 4116 4118 1
4083 4116 4124 1
4084 4116 4117 1
4085 4116 4135 1
4086 4117 4121 1
4087 4117 4120 1
4088 4117 4119 1
4089 4121 4123 1
4090 4121 4122 1
4091 4124 4125 1
4092 4124 4126 1
4093 4124 4127 1
4094 4128 4147 1
4095 4128 4129 1
4096 4128 4136 1
4097 4128 4130 1
4098 4129 4131 1
4099 4129 4132 1
4100 4129 4133 1
4101 4133 4135 1
4102 4133 4134 1
4103 4136 4137 1
4104 4136 4138 1
4105 4136 4139 1
4106 4140 4142 1
4107 4140 4148 1
4108 4140 4141 1
4109 4140 4159 1
4110 4141 4145 1
4111 4141 4144 1
4112 4141 4143 1
4113 4145 4147 1
4114 4145 4146 1
4115 4148 4150 1
4116 4148 4151 1
4117 4148 4149 1
4118 4152 4153 1
4119 4152 4171 1
4120 4152 4160 1
4121 4152 4154 1
4122 4153 4155 1
4123 4153 4157 1
4124 4153 4156 1
4125 4157 4158 1
4126 4157 4159 1
4127 4160 4161 1
4128 4160 4162 1
4129 4160 4163 1
4130 4164 4165 1
4131 4164 4183 1
4132 4164 4166 1
4133 4164 4172 1
4134 4165 4168 1
4135 4165 4169 1
4136 4165 4167 1
4137 4169 4171 1
4138 4169 4170 1
4139 4172 4175 1
4140 4172 4174 1
4141 4172 4173 1
4142 4176 4178 1
4143 4176 4177 1
4144 4176 4195 1
4145 4176 4184 1
4146 4177 4179 1
4147 4177 4181 1
4148 4177 4180 1
4149 4181 4182 1
4150 4181 4183 1
4151 4184 4185 1
4152 4184 4186 1
4153 4184 4187 1
4154 4188 4190 1
4155 4188 4189 1
4156 4188 4207 1
4157 4188 4196 1
4158 4189 4191 1
4159 4189 4193 1
4160 4189 4192 1
4161 4193 4195 1
4162 4193 4194 1
4163 4196 4199 1
4164 4196 4197 1
4165 4196 4198 1
4166 4200 4202 1
4167 4200 4219 1
4168 4200 4208 1
4169 4200 4201 1
4170 4201 4204 1
4171 4201 4205 1
4172 4201 4203 1
4173 4205 4206 1
4174 4205 4207 1
4175 4208 4209 1
4176 4208 4211 1
4177 4208 4210 1
4178 4212 4213 1
4179 4212 4214 1
4180 4212 4231 1
4181 4212 4220 1
4182 4213 4215 1
4183 4213 4217 1
4184 4213 4216 1
4185 4217 4219 1
4186 4217 4218 1
4187 4220 4221 1
4188 4220 4222 1
4189 4220 4223 1
4190 4224 4226 1
4191 4224 4243 1
4192 4224 4232 1
4193 4224 4225 1
4194 4225 4227 1
4195 4225 4228 1
4196 4225 4229 1
4197 4229 4230 1
4198 4229 4231 1
4199 4232 4235 1
4200 4232 4233 1
4201 4232 4234 1
4202 4236 4238 1
4203 4236 4255 1
4204 4236 4237 1
4205 4236 4244 1
4206 4237 4239 1
4207 4237 4240 1
4208 4237 4241 1
4209 4241 4243 1
4210 4241 4242 1
4211 4244 4246 1
4212 4244 4245 1
4213 4244 4247 1
4214 4248 4256 1
4215 4248 4267 1
4216 4248 4249 1
4217 4248 4250 1
4218 4249 4252 1
4219 4249 4253 1
4220 4249 4251 1
4221 4253 4254 1
4222 4253 4255 1
4223 4256 4259 1
4224 4256 4258 1
4225 4256 4257 1
4226 4260 4262 1
4227 4260 4268 1
4228 4260 4279 1
4229 4260 4261 1
4230 4261 4263 1
4231 4261 4264 1
4232 4261 4265 1
4233 4265 4267 1
4234 4265 4266 1
4235 4268 4271 1
4236 4268 4269 1
4237 4268 4270 1
4238 4272 4274 1
4239 4272 4273 1
4240 4272 4291 1
4241 4272 4280 1
4242 4273 4277 1
4243 4273 4275 1
4244 4273 4276 1
4245 4277 4278 1
4246 4277 4279 1
4247 4280 4282 1
4248 4280 4283 1
4249 4280 4281 1
4250 4284 4292 1
4251 4284 4303 1
4252 4284 4285 1
4253 4284 4286 1
4254 4285 4287 1
4255 4285 4288 1
4256 4285 4289 1
4257 4289 4291 1
4258 4289 4290 1
4259 4292 4294 1
4260 4292 4295 1
4261 4292 4293 1
4262 4296 4297 1
4263 4296 4298 1
4264 4296 4315 1
4265 4296 4304 1
4266 4297 4299 1
4267 4297 4301 1
4268 4297 4300 1
4269 4301 4302 1
4270 4301 4303 1
4271 4304 4305 1
4272 4304 4306 1
4273 4304 4307 1
4274 4308 4310 1
4275 4308 4309 1
4276 4308 4316 1
4277 4308 4327 1
4278 4309 4312 1
4279 4309 4311 1
4280 4309 4313 1
4281 4313 4315 1
4282 4313 4314 1
4283 4316 4318 1
4284 4316 4317 1
4285 4316 4319 1
4286 4320 4322 1
4287 4320 4321 1
4288 4320 4328 1
4289 4321 4323 1
4290 4321 4324 1
4291 4321 4325 1
4292 4325 4326 1
4293 4325 4327 1
4294 4328 4330 1
4295 4328 4329 1
4296 4328 4331 1
4297 4332 4333 1
4298 4333 4335 1
4299 4333 4334 1
4300 4333 4341 1
4301 4334 4336 1
4302 4334 4337 1
4303 4334 4338 1
4304 4338 4340 1
4305 4338 4339 1
4306 4341 4343 1
4307 4341 4342 1
4308 4341 4344 1
4309 4345 4354 1
4310 4345 4346 1
4311 4345 4347 1
4312 4346 4350 1
4313 4346 4349 1
4314 4346 4348 1
4315 4350 4351 1
4316 4350 4352 1
4317 4352 4353 1
4318 4354 4355 1
4319 4354 4357 1
4320 4354 4356 1
4321 4358 4377 1
4322 4358 4366 1
4323 4358 4360 1
4324 4358 4359 1
4325 4359 4361 1
4326 4359 4362 1
4327 4359 4363 1
4328 4363 4364 1
4329 4363 4365 1
4330 4366 4367 1
4331 4366 4368 1
4332 4366 4369 1
4333 4370 4389 1
4334 4370 4371 1
4335 4370 4378 1
4336 4370 4372 1
4337 4371 4375 1
4338 4371 4373 1
4339 4371 4374 1
4340 4375 4376 1
4341 4375 4377 1
4342 4378 4380 1
4343 4378 4381 1
4344 4378 4379 1
4345 4382 4401 1
4346 4382 4390 1
4347 4382 4383 1
4348 4382 4384 1
4349 4383 4386 1
4350 4383 4385 1
4351 4383 4387 1
4352 4387 4388 1
4353 4387 4389 1
4354 4390 4391 1
4355 4390 4392 1
4356 4390 4393 1
4357 4394 4395 1
4358 4394 4413 1
4359 4394 4402 1
4360 4394 4396 1
4361 4395 4399 1
4362 4395 4398 1
4363 4395 4397 1
4364 4399 4401 1
4365 4399 4400 1
4366 4402 4403 1
4367 4402 4404 1
4368 4402 4405 1
4369 4406 4425 1
4370 4406 4407 1
4371 4406 4414 1
4372 4406 4408 1
4373 4407 4411 1
4374 4407 4410 1
4375 4407 4409 1
4376 4411 4412 1
4377 4411 4413 1
4378 4414 4416 1
4379 4414 4415 1
4380 4414 4417 1
4381 4418 4437 1
4382 4418 4426 1
4383 4418 4419 1
4384 4418 4420 1
4385 4419 4422 1
4386 4419 4421 1
4387 4419 4423 1
4388 4423 4425 1
4389 4423 4424 1
4390 4426 4428 1
4391 4426 4427 1
4392 4426 4429 1
4393 4430 4449 1
4394 4430 4431 1
4395 4430 4432 1
4396 4430 4438 1
4397 4431 4434 1
4398 4431 4435 1
4399 4431 4433 1
4400 4435 4436 1
4401 4435 4437 1
4402 4438 4441 1
4403 4438 4439 1
4404 4438 4440 1
4405 4442 4461 1
4406 4442 4450 1
4407 4442 4443 1
4408 4442 4444 1
4409 4443 4445 1
4410 4443 4446 1
4411 4443 4447 1
4412 4447 4449 1
4413 4447 4448 1
4414 4450 4452 1
4415 4450 4451 1
4416 4450 4453 1
4417 4454 4455 1
4418 4454 4473 1
4419 4454 4456 1
4420 4454 4462 1
4421 4455 4458 1
4422 4455 4459 1
4423 4455 4457 1
4424 4459 4460 1
4425 4459 4461 1
4426 4462 4465 1
4427 4462 4463 1
4428 4462 4464 1
4429 4466 4468 1
4430 4466 4467 1
4431 4466 4474 1
4432 4466 4485 1
4433 4467 4469 1
4434 4467 4470 1
4435 4467 4471 1
4436 4471 4473 1
4437 4471 4472 1
4438 4474 4477 1
4439 4474 4475 1
4440 4474 4476 1
4441 4478 4479 1
4442 4478 4497 1
4443 4478 4480 1
4444 4478 4486 1
4445 4479 4481 1
4446 4479 4482 1
4447 4479 4483 1
4448 4483 4484 1
4449 4483 4485 1
4450 4486 4487 1
4451 4486 4489 1
4452 4486 4488 1
4453 4490 4492 1
4454 4490 4491 1
4455 4490 4498 1
4456 4490 4509 1
4457 4491 4493 1
4458 4491 4495 1
4459 4491 4494 1
4460 4495 4497 1
4461 4495 4496 1
4462 4498 4499 1
4463 4498 4501 1
4464 4498 4500 1
4465 4502 4504 1
4466 4502 4503 1
4467 4502 4521 1
4468 4502 4510 1
4469 4503 4505 1
4470 4503 4506 1
4471 4503 4507 1
4472 4507 4508 1
4473 4507 4509 1
4474 4510 4511 1
4475 4510 4513 1
4476 4510 4512 1
4477 4514 4516 1
4478 4514 4522 1
4479 4514 4533 1
4480 4514 4515 1
4481 4515 4518 1
4482 4515 4519 1
4483 4515 4517 1
4484 4519 4521 1
4485 4519 4520 1
4486 4522 4523 1
4487 4522 4525 1
4488 4522 4524 1
4489 4526 4528 1
4490 4526 4545 1
4491 4526 4527 1
4492 4526 4534 1
4493 4527 4530 1
4494 4527 4531 1
4495 4527 4529 1
4496 4531 4532 1
4497 4531 4533 1
4498 4534 4537 1
4499 4534 4535 1
4500 4534 4536 1
4501 4538 4540 1
4502 4538 4546 1
4503 4538 4557 1
4504 4538 4539 1
4505 4539 4541 1
4506 4539 4542 1
4507 4539 4543 1
4508 4543 4545 1
4509 4543 4544 1
4510 4546 4548 1
4511 4546 4547 1
4512 4546 4549 1
4513 4550 4552 1
4514 4550 4569 1
4515 4550 4551 1
4516 4550 4558 1
4517 4551 4554 1
4518 4551 4553 1
4519 4551 4555 1
4520 4555 4556 1
4521 4555 4557 1
4522 4558 4561 1
4523 4558 4559 1
4524 4558 4560 1
4525 4562 4570 1
4526 4562 4564 1
4527 4562 4581 1
4528 4562 4563 1
4529 4563 4565 1
4530 4563 4567 1
4531 4563 4566 1
4532 4567 4569 1
4533 4567 4568 1
4534 4570 4573 1
4535 4570 4572 1
4536 4570 4571 1
4537 4574 4576 1
4538 4574 4582 1
4539 4574 4575 1
4540 4574 4593 1
4541 4575 4578 1
4542 4575 4577 1
4543 4575 4579 1
4544 4579 4580 1
4545 4579 4581 1
4546 4582 4584 1
4547 4582 4585 1
4548 4582 4583 1
4549 4586 4588 1
4550 4586 4587 1
4551 4586 4605 1
4552 4586 4594 1
4553 4587 4589 1
4554 4587 4591 1
4555 4587 4590 1
4556 4591 4593 1
4557 4591 4592 1
4558 4594 4597 1
4559 4594 4595 1
4560 4594 4596 1
4561 4598 4600 1
4562 4598 4599 1
4563 4598 4617 1
4564 4598 4606 1
4565 4599 4601 1
4566 4599 4603 1
4567 4599 4602 1
4568 4603 4604 1
4569 4603 4605 1
4570 4606 4608 1
4571 4606 4609 1
4572 4606 4607 1
4573 4610 4612 1
4574 4610 4611 1
4575 4610 4629 1
4576 4610 4618 1
4577 4611 4615 1
4578 4611 4613 1
4579 4611 4614 1
4580 4615 4617 1
4581 4615 4616 1
4582 4618 4619 1
4583 4618 4621 1
4584 4618 4620 1
4585 4622 4624 1
4586 4622 4623 1
4587 4622 4641 1
4588 4622 4630 1
4589 4623 4625 1
4590 4623 4627 1
4591 4623 4626 1
4592 4627 4628 1
4593 4627 4629 1
4594 4630 4631 1
4595 4630 4632 1
4596 4630 4633 1
4597 4634 4636 1
4598 4634 4653 1
4599 4634 4642 1
4600 4634 4635 1
4601 4635 4638 1
4602 4635 4637 1
4603 4635 4639 1
4604 4639 4640 1
4605 4639 4641 1
4606 4642 4644 1
4607 4642 4643 1
4608 4642 4645 1
4609 4646 4647 1
4610 4646 4648 1
4611 4646 4665 1
4612 4646 4654 1
4613 4647 4651 1
4614 4647 4649 1
4615 4647 4650 1
4616 4651 4652 1
4617 4651 4653 1
4618 4654 4656 1
4619 4654 4655 1
4620 4654 4657 1
4621 4658 4677 1
4622 4658 4666 1
4623 4658 4659 1
4624 4658 4660 1
4625 4659 4662 1
4626 4659 4661 1
4627 4659 4663 1
4628 4663 4664 1
4629 4663 4665 1
4630 4666 4669 1
4631 4666 4667 1
4632 4666 4668 1
4633 4670 4672 1
4634 4670 4678 1
4635 4670 4689 1
4636 4670 4671 1
4637 4671 4675 1
4638 4671 4673 1
4639 4671 4674 1
4640 4675 4676 1
4641 4675 4677 1
4642 4678 4681 1
4643 4678 4679 1
4644 4678 4680 1
4645 4682 4690 1
4646 4682 4684 1
4647 4682 4683 1
4648 4683 4685 1
4649 4683 4686 1
4650 4683 4687 1
4651 4687 4688 1
4652 4687 4689 1
4653 4690 4693 1
4654 4690 4691 1
4655 4690 4692 1
4656 4694 4695 1
4657 4695 4703 1
4658 4695 4696 1
4659 4695 4697 1
4660 4696 4700 1
4661 4696 4698 1
4662 4696 4699 1
4663 4700 4701 1
4664 4700 4702 1
4665 4703 4706 1
4666 4703 4704 1
4667 4703 4705 1
4668 4707 4709 1
4669 4707 4708 1
4670 4707 4716 1
4671 4708 4711 1
4672 4708 4710 1
4673 4708 4712 1
4674 4712 4714 1
4675 4712 4713 1
4676 4714 4715 1
4677 4716 4718 1
4678 4716 4717 1
4679 4716 4719 1
4680 4720 4722 1
4681 4720 4721 1
4682 4720 4739 1
4683 4720 4728 1
4684 4721 4723 1
4685 4721 4724 1
4686 4721 4725 1
4687 4725 4726 1
4688 4725 4727 1
4689 4728 4729 1
4690 4728 4730 1
4691 4728 4731 1
4692 4732 4733 1
4693 4732 4734 1
4694 4732 4740 1
4695 4732 4751 1
4696 4733 4735 1
4697 4733 4736 1
4698 4733 4737 1
4699 4737 4739 1
4700 4737 4738 1
4701 4740 4743 1
4702 4740 4741 1
4703 4740 4742 1
4704 4744 4746 1
4705 4744 4745 1
4706 4744 4752 1
4707 4744 4763 1
4708 4745 4748 1
4709 4745 4747 1
4710 4745 4749 1
4711 4749 4750 1
4712 4749 4751 1
4713 4752 4753 1
4714 4752 4755 1
4715 4752 4754 1
4716 4756 4757 1
4717 4756 4758 1
4718 4756 4764 1
4719 4756 4775 1
4720 4757 4759 1
4721 4757 4760 1
4722 4757 4761 1
4723 4761 4763 1
4724 4761 4762 1
4725 4764 4765 1
4726 4764 4767 1
4727 4764 4766 1
4728 4768 4770 1
4729 4768 4769 1
4730 4768 4776 1
4731 4768 4787 1
4732 4769 4771 1
4733 4769 4772 1
4734 4769 4773 1
4735 4773 4774 1
4736 4773 4775 1
4737 4776 4779 1
4738 4776 4777 1
4739 4776 4778 1
4740 4780 4782 1
4741 4780 4788 1
4742 4780 4781 1
4743 4780 4799 1
4744 4781 4784 1
4745 4781 4783 1
4746 4781 4785 1
4747 4785 4787 1
4748 4785 4786 1
4749 4788 4790 1
4750 4788 4791 1
4751 4788 4789 1
4752 4792 4800 1
4753 4792 4793 1
4754 4792 4794 1
4755 4792 4811 1
4756 4793 4796 1
4757 4793 4795 1
4758 4793 4797 1
4759 4797 4798 1
4760 4797 4799 1
4761 4800 4803 1
4762 4800 4801 1
4763 4800 4802 1
4764 4804 4806 1
4765 4804 4812 1
4766 4804 4805 1
4767 4804 4823 1
4768 4805 4807 1
4769 4805 4808 1
4770 4805 4809 1
4771 4809 4811 1
4772 4809 4810 1
4773 4812 4813 1
4774 4812 4814 1
4775 4812 4815 1
4776 4816 4818 1
4777 4816 4817 1
4778 4816 4824 1
4779 4816 4835 1
4780 4817 4819 1
4781 4817 4820 1
4782 4817 4821 1
4783 4821 4823 1
4784 4821 4822 1
4785 4824 4826 1
4786 4824 4825 1
4787 4824 4827 1
4788 4828 4836 1
4789 4828 4830 1
4790 4828 4847 1
4791 4828 4829 1
4792 4829 4832 1
4793 4829 4833 1
4794 4829 4831 1
4795 4833 4835 1
4796 4833 4834 1
4797 4836 4837 1
4798 4836 4838 1
4799 4836 4839 1
4800 4840 4842 1
4801 4840 4848 1
4802 4840 4841 1
4803 4840 4859 1
4804 4841 4845 1
4805 4841 4844 1
4806 4841 4843 1
4807 4845 4847 1
4808 4845 4846 1
4809 4848 4849 1
4810 4848 4850 1
4811 4848 4851 1
4812 4852 4860 1
4813 4852 4854 1
4814 4852 4871 1
4815 4852 4853 1
4816 4853 4856 1
4817 4853 4857 1
4818 4853 4855 1
4819 4857 4859 1
4820 4857 4858 1
4821 4860 4861 1
4822 4860 4862 1
4823 4860 4863 1
4824 4864 4866 1
4825 4864 4872 1
4826 4864 4865 1
4827 4864 4883 1
4828 4865 4867 1
4829 4865 4869 1
4830 4865 4868 1
4831 4869 4871 1
4832 4869 4870 1
4833 4872 4874 1
4834 4872 4873 1
4835 4872 4875 1
4836 4876 4877 1
4837 4876 4895 1
4838 4876 4884 1
4839 4876 4878 1
4840 4877 4879 1
4841 4877 4880 1
4842 4877 4881 1
4843 4881 4883 1
4844 4881 4882 1
4845 4884 4885 1
4846 4884 4886 1
4847 4884 4887 1
4848 4888 4889 1
4849 4888 4907 1
4850 4888 4890 1
4851 4888 4896 1
4852 4889 4893 1
4853 4889 4891 1
4854 4889 4892 1
4855 4893 4895 1
4856 4893 4894 1
4857 4896 4899 1
4858 4896 4897 1
4859 4896 4898 1
4860 4900 4902 1
4861 4900 4901 1
4862 4900 4919 1
4863 4900 4908 1
4864 4901 4903 1
4865 4901 4905 1
4866 4901 4904 1
4867 4905 4906 1
4868 4905 4907 1
4869 4908 4909 1
4870 4908 4910 1
4871 4908 4911 1
4872 4912 4914 1
4873 4912 4913 1
4874 4912 4931 1
4875 4912 4920 1
4876 4913 4915 1
4877 4913 4916 1
4878 4913 4917 1
4879 4917 4918 1
4880 4917 4919 1
4881 4920 4923 1
4882 4920 4921 1
4883 4920 4922 1
4884 4924 4926 1
4885 4924 4943 1
4886 4924 4932 1
4887 4924 4925 1
4888 4925 4928 1
4889 4925 4929 1
4890 4925 4927 1
4891 4929 4930 1
4892 4929 4931 1
4893 4932 4933 1
4894 4932 4935 1
4895 4932 4934 1
4896 4936 4938 1
4897 4936 4955 1
4898 4936 4937 1
4899 4936 4944 1
4900 4937 4940 1
4901 4937 4941 1
4902 4937 4939 1
4903 4941 4942 1
4904 4941 4943 1
4905 4944 4945 1
4906 4944 4946 1
4907 4944 4947 1
4908 4948 4950 1
4909 4948 4967 1
4910 4948 4956 1
4911 4948 4949 1
4912 4949 4951 1
4913 4949 4952 1
4914 4949 4953 1
4915 4953 4954 1
4916 4953 4955 1
4917 4956 4959 1
4918 4956 4957 1
4919 4956 4958 1
4920 4960 4962 1
4921 4960 4979 1
4922 4960 4961 1
4923 4960 4968 1
4924 4961 4963 1
4925 4961 4964 1
4926 4961 4965 1
4927 4965 4966 1
4928 4965 4967 1
4929 4968 4970 1
4930 4968 4969 1
4931 4968 4971 1
4932 4972 4980 1
4933 4972 4974 1
4934 4972 4991 1
4935 4972 4973 1
4936 4973 4976 1
4937 4973 4977 1
4938 4973 4975 1
4939 4977 4978 1
4940 4977 4979 1
4941 4980 4983 1
4942 4980 4982 1
4943 4980 4981 1
4944 4984 4992 1
4945 4984 5003 1
4946 4984 4986 1
4947 4984 4985 1
4948 4985 4987 1
4949 4985 4988 1
4950 4985 4989 1
4951 4989 4990 1
4952 4989 4991 1
4953 4992 4995 1
4954 4992 4993 1
4955 4992 4994 1
4956 4996 5004 1
4957 4996 5015 1
4958 4996 4997 1
4959 4996 4998 1
4960 4997 5000 1
4961 4997 5001 1
4962 4997 4999 1
4963 5001 5002 1
4964 5001 5003 1
4965 5004 5006 1
4966 5004 5007 1
4967 5004 5005 1
4968 5008 5009 1
4969 5008 5010 1
4970 5008 5016 1
4971 5008 5027 1
4972 5009 5011 1
4973 5009 5012 1
4974 5009 5013 1
4975 5013 5014 1
4976 5013 5015 1
4977 5016 5018 1
4978 5016 5017 1
4979 5016 5019 1
4980 5020 5021 1
4981 5020 5022 1
4982 5020 5039 1
4983 5020 5028 1
4984 5021 5024 1
4985 5021 5023 1
4986 5021 5025 1
4987 5025 5026 1
4988 5025 5027 1
4989 5028 5029 1
4990 5028 5030 1
4991 5028 5031 1
4992 5032 5034 1
4993 5032 5033 1
4994 5032 5040 1
4995 5032 5051 1
4996 5033 5036 1
4997 5033 5035 1
4998 5033 5037 1
4999 5037 5039 1
5000 5037 5038 1
5001 5040 5042 1
5002 5040 5041 1
5003 5040 5043 1
5004 5044 5046 1
5005 5044 5045 1
5006 5044 5052 1
5007 5045 5047 1
5008 5045 5048 1
5009 5045 5049 1
5010 5049 5050 1
5011 5049 5051 1
5012 5052 5054 1
5013 5052 5053 1
5014 5052 5055 1
5015 5056 5057 1
5016 5057 5059 1
5017 5057 5058 1
5018 5057 5065 1
5019 5058 5060 1
5020 5058 5061 1
5021 5058 5062 1
5022 5062 5064 1
5023 5062 5063 1
5024 5065 5067 1
5025 5065 5066 1
5026 5065 5068 1
5027 5069 5078 1
5028 5069 5071 1
5029 5069 5070 1
5030 5070 5073 1
5031 5070 5072 1
5032 5070 5074 1
5033 5074 5075 1
5034 5074 5076 1
5035 5076 5077 1
5036 5078 5079 1
5037 5078 5081 1
5038 5078 5080 1
5039 5082 5101 1
5040 5082 5090 1
5041 5082 5084 1
5042 5082 5083 1
5043 5083 5085 1
5044 5083 5086 1
5045 5083 5087 1
5046 5087 5088 1
5047 5087 5089 1
5048 5090 5091 1
5049 5090 5092 1
5050 5090 5093 1
5051 5094 5113 1
5052 5094 5102 1
5053 5094 5096 1
5054 5094 5095 1
5055 5095 5097 1
5056 5095 5098 1
5057 5095 5099 1
5058 5099 5100 1
5059 5099 5101 1
5060 5102 5104 1
5061 5102 5103 1
5062 5102 5105 1
5063 5106 5125 1
5064 5106 5107 1
5065 5106 5114 1
5066 5106 5108 1
5067 5107 5111 1
5068 5107 5110 1
5069 5107 5109 1
5070 5111 5112 1
5071 5111 5113 1
5072 5114 5115 1
5073 5114 5116 1
5074 5114 5117 1
5075 5118 5119 1
5076 5118 5137 1
5077 5118 5126 1
5078 5118 5120 1
5079 5119 5123 1
5080 5119 5121 1
5081 5119 5122 1
5082 5123 5125 1
5083 5123 5124 1
5084 5126 5127 1
5085 5126 5128 1
5086 5126 5129 1
5087 5130 5149 1
5088 5130 5131 1
5089 5130 5138 1
5090 5130 5132 1
5091 5131 5135 1
5092 5131 5134 1
5093 5131 5133 1
5094 5135 5136 1
5095 5135 5137 1
5096 5138 5140 1
5097 5138 5139 1
5098 5138 5141 1
5099 5142 5161 1
5100 5142 5150 1
5101 5142 5143 1
5102 5142 5144 1
5103 5143 5146 1
5104 5143 5147 1
5105 5143 5145 1
5106 5147 5149 1
5107 5147 5148 1
5108 5150 5152 1
5109 5150 5153 1
5110 5150 5151 1
5111 5154 5162 1
5112 5154 5173 1
5113 5154 5155 1
5114 5154 5156 1
5115 5155 5158 1
5116 5155 5159 1
5117 5155 5157 1
5118 5159 5160 1
5119 5159 5161 1
5120 5162 5164 1
5121 5162 5165 1
5122 5162 5163 1
5123 5166 5185 1
5124 5166 5167 1
5125 5166 5174 1
5126 5166 5168 1
5127 5167 5170 1
5128 5167 5169 1
5129 5167 5171 1
5130 5171 5173 1
5131 5171 5172 1
5132 5174 5175 1
5133 5174 5177 1
5134 5174 5176 1
5135 5178 5179 1
5136 5178 5197 1
5137 5178 5180 1
5138 5178 5186 1
5139 5179 5181 1
5140 5179 5182 1
5141 5179 5183 1
5142 5183 5184 1
5143 5183 5185 1
5144 5186 5189 1
5145 5186 5187 1
5146 5186 5188 1
5147 5190 5209 1
5148 5190 5191 1
5149 5190 5198 1
5150 5190 5192 1
5151 5191 5193 1
5152 5191 5194 1
5153 5191 5195 1
5154 5195 5197 1
5155 5195 5196 1
5156 5198 5201 1
5157 5198 5199 1
5158 5198 5200 1
5159 5202 5203 1
5160 5202 5204 1
5161 5202 5221 1
5162 5202 5210 1
5163 5203 5205 1
5164 5203 5206 1
5165 5203 5207 1
5166 5207 5208 1
5167 5207 5209 1
5168 5210 5211 1
5169 5210 5213 1
5170 5210 5212 1
5171 5214 5233 1
5172 5214 5216 1
5173 5214 5215 1
5174 5214 5222 1
5175 5215 5217 1
5176 5215 5219 1
5177 5215 5218 1
5178 5219 5221 1
5179 5219 5220 1
5180 5222 5223 1
5181 5222 5225 1
5182 5222 5224 1
5183 5226 5228 1
5184 5226 5227 1
5185 5226 5245 1
5186 5226 5234 1
5187 5227 5229 1
5188 5227 5230 1
5189 5227 5231 1
5190 5231 5233 1
5191 5231 5232 1
5192 5234 5235 1
5193 5234 5237 1
5194 5234 5236 1
5195 5238 5240 1
5196 5238 5257 1
5197 5238 5246 1
5198 5238 5239 1
5199 5239 5242 1
5200 5239 5243 1
5201 5239 5241 1
5202 5243 5245 1
5203 5243 5244 1
5204 5246 5247 1
5205 5246 5249 1
5206 5246 5248 1
5207 5250 5252 1
5208 5250 5251 1
5209 5250 5269 1
5210 5250 5258 1
5211 5251 5254 1
5212 5251 5255 1
5213 5251 5253 1
5214 5255 5257 1
5215 5255 5256 1
5216 5258 5261 1
5217 5258 5259 1
5218 5258 5260 1
5219 5262 5264 1
5220 5262 5270 1
5221 5262 5281 1
5222 5262 5263 1
5223 5263 5265 1
5224 5263 5266 1
5225 5263 5267 1
5226 5267 5269 1
5227 5267 5268 1
5228 5270 5271 1
5229 5270 5273 1
5230 5270 5272 1
5231 5274 5276 1
5232 5274 5282 1
5233 5274 5275 1
5234 5274 5293 1
5235 5275 5278 1
5236 5275 5277 1
5237 5275 5279 1
5238 5279 5280 1
5239 5279 5281 1
5240 5282 5284 1
5241 5282 5285 1
5242 5282 5283 1
5243 5286 5294 1
5244 5286 5288 1
5245 5286 5305 1
5246 5286 5287 1
5247 5287 5290 1
5248 5287 5289 1
5249 5287 5291 1
5250 5291 5293 1
5251 5291 5292 1
5252 5294 5297 1
5253 5294 5296 1
5254 5294 5295 1
5255 5298 5299 1
5256 5298 5300 1
5257 5298 5317 1
5258 5298 5306 1
5259 5299 5301 1
5260 5299 5303 1
5261 5299 5302 1
5262 5303 5304 1
5263 5303 5305 1
5264 5306 5308 1
5265 5306 5309 1
5266 5306 5307 1
5267 5310 5312 1
5268 5310 5311 1
5269 5310 5329 1
5270 5310 5318 1
5271 5311 5313 1
5272 5311 5315 1
5273 5311 5314 1
5274 5315 5317 1
5275 5315 5316 1
5276 5318 5321 1
5277 5318 5320 1
5278 5318 5319 1
5279 5322 5324 1
5280 5322 5323 1
5281 5322 5341 1
5282 5322 5330 1
5283 5323 5325 1
5284 5323 5327 1
5285 5323 5326 1
5286 5327 5328 1
5287 5327 5329 1
5288 5330 5332 1
5289 5330 5331 1
5290 5330 5333 1
5291 5334 5336 1
5292 5334 5335 1
5293 5334 5353 1
5294 5334 5342 1
5295 5335 5339 1
5296 5335 5337 1
5297 5335 5338 1
5298 5339 5341 1
5299 5339 5340 1
5300 5342 5343 1
5301 5342 5345 1
5302 5342 5344 1
5303 5346 5348 1
5304 5346 5347 1
5305 5346 5365 1
5306 5346 5354 1
5307 5347 5351 1
5308 5347 5349 1
5309 5347 5350 1
5310 5351 5352 1
5311 5351 5353 1
5312 5354 5355 1
5313 5354 5356 1
5314 5354 5357 1
5315 5358 5360 1
5316 5358 5377 1
5317 5358 5359 1
5318 5358 5366 1
5319 5359 5363 1
5320 5359 5362 1
5321 5359 5361 1
5322 5363 5364 1
5323 5363 5365 1
5324 5366 5368 1
5325 5366 5369 1
5326 5366 5367 1
5327 5370 5372 1
5328 5370 5389 1
5329 5370 5371 1
5330 5370 5378 1
5331 5371 5373 1
5332 5371 5374 1
5333 5371 5375 1
5334 5375 5376 1
5335 5375 5377 1
5336 5378 5380 1
5337 5378 5379 1
5338 5378 5381 1
5339 5382 5401 1
5340 5382 5390 1
5341 5382 5384 1
5342 5382 5383 1
5343 5383 5386 1
5344 5383 5385 1
5345 5383 5387 1
5346 5387 5388 1
5347 5387 5389 1
5348 5390 5393 1
5349 5390 5391 1
5350 5390 5392 1
5351 5394 5402 1
5352 5394 5413 1
5353 5394 5396 1
5354 5394 5395 1
5355 5395 5398 1
5356 5395 5397 1
5357 5395 5399 1
5358 5399 5400 1
5359 5399 5401 1
5360 5402 5405 1
5361 5402 5403 1
5362 5402 5404 1
5363 5406 5414 1
5364 5406 5408 1
5365 5406 5407 1
5366 5407 5409 1
5367 5407 5410 1
5368 5407 5411 1
5369 5411 5412 1
5370 5411 5413 1
5371 5414 5417 1
5372 5414 5415 1
5373 5414 5416 1
5374 5418 5419 1
5375 5419 5427 1
5376 5419 5421 1
5377 5419 5420 1
5378 5420 5422 1
5379 5420 5423 1
5380 5420 5424 1
5381 5424 5425 1
5382 5424 5426 1
5383 5427 5429 1
5384 5427 5430 1
5385 5427 5428 1
5386 5431 5433 1
5387 5431 5432 1
5388 5431 5440 1
5389 5432 5435 1
5390 5432 5434 1
5391 5432 5436 1
5392 5436 5438 1
5393 5436 5437 1
5394 5438 5439 1
5395 5440 5442 1
5396 5440 5441 1
5397 5440 5443 1
5398 5444 5446 1
5399 5444 5445 1
5400 5444 5463 1
5401 5444 5452 1
5402 5445 5447 1
5403 5445 5448 1
5404 5445 5449 1
5405 5449 5450 1
5406 5449 5451 1
5407 5452 5453 1
5408 5452 5454 1
5409 5452 5455 1
5410 5456 5457 1
5411 5456 5458 1
5412 5456 5464 1
5413 5456 5475 1
5414 5457 5459 1
5415 5457 5460 1
5416 5457 5461 1
5417 5461 5463 1
5418 5461 5462 1
5419 5464 5467 1
5420 5464 5465 1
5421 5464 5466 1
5422 5468 5470 1
5423 5468 5469 1
5424 5468 5476 1
5425 5468 5487 1
5426 5469 5472 1
5427 5469 5471 1
5428 5469 5473 1
5429 5473 5474 1
5430 5473 5475 1
5431 5476 5477 1
5432 5476 5479 1
5433 5476 5478 1
5434 5480 5481 1
5435 5480 5482 1
5436 5480 5488 1
5437 5480 5499 1
5438 5481 5483 1
5439 5481 5484 1
5440 5481 5485 1
5441 5485 5487 1
5442 5485 5486 1
5443 5488 5489 1
5444 5488 5491 1
5445 5488 5490 1
5446 5492 5494 1
5447 5492 5493 1
5448 5492 5500 1
5449 5492 5511 1
5450 5493 5495 1
5451 5493 5496 1
5452 5493 5497 1
5453 5497 5498 1
5454 5497 5499 1
5455 5500 5503 1
5456 5500 5501 1
5457 5500 5502 1
5458 5504 5506 1
5459 5504 5512 1
5460 5504 5505 1
5461 5504 5523 1
5462 5505 5508 1
5463 5505 5507 1
5464 5505 5509 1
5465 5509 5511 1
5466 5509 5510 1
5467 5512 5514 1
5468 5512 5515 1
5469 5512 5513 1
5470 5516 5524 1
5471 5516 5517 1
5472 5516 5518 1
5473 5516 5535 1
5474 5517 5520 1
5475 5517 5519 1
5476 5517 5521 1
5477 5521 5523 1
5478 5521 5522 1
5479 5524 5527 1
5480 5524 5525 1
5481 5524 5526 1
5482 5528 5530 1
5483 5528 5536 1
5484 5528 5529 1
5485 5528 5547 1
5486 5529 5531 1
5487 5529 5532 1
5488 5529 5533 1
5489 5533 5535 1
5490 5533 5534 1
5491 5536 5537 1
5492 5536 5538 1
5493 5536 5539 1
5494 5540 5542 1
5495 5540 5548 1
5496 5540 5541 1
5497 5540 5559 1
5498 5541 5545 1
5499 5541 5544 1
5500 5541 5543 1
5501 5545 5547 1
5502 5545 5546 1
5503 5548 5550 1
5504 5548 5551 1
5505 5548 5549 1
5506 5552 5560 1
5507 5552 5554 1
5508 5552 5571 1
5509 5552 5553 1
5510 5553 5556 1
5511 5553 5557 1
5512 5553 5555 1
5513 5557 5559 1
5514 5557 5558 1
5515 5560 5561 1
5516 5560 5562 1
5517 5560 5563 1
5518 5564 5566 1
5519 5564 5572 1
5520 5564 5565 1
5521 5564 5583 1
5522 5565 5569 1
5523 5565 5568 1
5524 5565 5567 1
5525 5569 5571 1
5526 5569 5570 1
5527 5572 5573 1
5528 5572 5574 1
5529 5572 5575 1
5530 5576 5584 1
5531 5576 5578 1
5532 5576 5595 1
5533 5576 5577 1
5534 5577 5580 1
5535 5577 5581 1
5536 5577 5579 1
5537 5581 5583 1
5538 5581 5582 1
5539 5584 5585 1
5540 5584 5586 1
5541 5584 5587 1
5542 5588 5589 1
5543 5588 5607 1
5544 5588 5590 1
5545 5588 5596 1
5546 5589 5591 1
5547 5589 5593 1
5548 5589 5592 1
5549 5593 5595 1
5550 5593 5594 1
5551 5596 5598 1
5552 5596 5597 1
5553 5596 5599 1
5554 5600 5602 1
5555 5600 5608 1
5556 5600 5619 1
5557 5600 5601 1
5558 5601 5603 1
5559 5601 5604 1
5560 5601 5605 1
5561 5605 5607 1
5562 5605 5606 1
5563 5608 5609 1
5564 5608 5610 1
5565 5608 5611 1
5566 5612 5613 1
5567 5612 5614 1
5568 5612 5631 1
5569 5612 5620 1
5570 5613 5615 1
5571 5613 5616 1
5572 5613 5617 1
5573 5617 5618 1
5574 5617 5619 1
5575 5620 5623 1
5576 5620 5621 1
5577 5620 5622 1
5578 5624 5626 1
5579 5624 5625 1
5580 5624 5643 1
5581 5624 5632 1
5582 5625 5627 1
5583 5625 5629 1
5584 5625 5628 1
5585 5629 5631 1
5586 5629 5630 1
5587 5632 5633 1
5588 5632 5634 1
5589 5632 5635 1
5590 5636 5638 1
5591 5636 5637 1
5592 5636 5655 1
5593 5636 5644 1
5594 5637 5639 1
5595 5637 5640 1
5596 5637 5641 1
5597 5641 5642 1
5598 5641 5643 1
5599 5644 5647 1
5600 5644 5645 1
5601 5644 5646 1
5602 5648 5649 1
5603 5648 5650 1
5604 5648 5667 1
5605 5648 5656 1
5606 5649 5651 1
5607 5649 5653 1
5608 5649 5652 1
5609 5653 5655 1
5610 5653 5654 1
5611 5656 5657 1
5612 5656 5659 1
5613 5656 5658 1
5614 5660 5662 1
5615 5660 5679 1
5616 5660 5661 1
5617 5660 5668 1
5618 5661 5664 1
5619 5661 5663 1
5620 5661 5665 1
5621 5665 5666 1
5622 5665 5667 1
5623 5668 5669 1
5624 5668 5670 1
5625 5668 5671 1
5626 5672 5674 1
5627 5672 5691 1
5628 5672 5680 1
5629 5672 5673 1
5630 5673 5675 1
5631 5673 5676 1
5632 5673 5677 1
5633 5677 5678 1
5634 5677 5679 1
5635 5680 5683 1
5636 5680 5681 1
5637 5680 5682 1
5638 5684 5686 1
5639 5684 5692 1
5640 5684 5703 1
5641 5684 5685 1
5642 5685 5687 1
5643 5685 5688 1
5644 5685 5689 1
5645 5689 5690 1
5646 5689 5691 1
5647 5692 5695 1
5648 5692 5694 1
5649 5692 5693 1
5650 5696 5698 1
5651 5696 5715 1
5652 5696 5704 1
5653 5696 5697 1
5654 5697 5700 1
5655 5697 5701 1
5656 5697 5699 1
5657 5701 5702 1
5658 5701 5703 1
5659 5704 5705 1
5660 5704 5706 1
5661 5704 5707 1
5662 5708 5716 1
5663 5708 5727 1
5664 5708 5710 1
5665 5708 5709 1
5666 5709 5711 1
5667 5709 5712 1
5668 5709 5713 1
5669 5713 5714 1
5670 5713 5715 1
5671 5716 5718 1
5672 5716 5719 1
5673 5716 5717 1
5674 5720 5728 1
5675 5720 5739 1
5676 5720 5721 1
5677 5720 5722 1
5678 5721 5724 1
5679 5721 5723 1
5680 5721 5725 1
5681 5725 5727 1
5682 5725 5726 1
5683 5728 5731 1
5684 5728 5730 1
5685 5728 5729 1
5686 5732 5733 1
5687 5732 5734 1
5688 5732 5740 1
5689 5732 5751 1
5690 5733 5735 1
5691 5733 5736 1
5692 5733 5737 1
5693 5737 5738 1
5694 5737 5739 1
5695 5740 5742 1
5696 5740 5741 1
5697 5740 5743 1
5698 5744 5745 1
5699 5744 5746 1
5700 5744 5763 1
5701 5744 5752 1
5702 5745 5748 1
5703 5745 5747 1
5704 5745 5749 1
5705 5749 5751 1
5706 5749 5750 1
5707 5752 5753 1
5708 5752 5754 1
5709 5752 5755 1
5710 5756 5758 1
5711 5756 5757 1
5712 5756 5764 1
5713 5756 5775 1
5714 5757 5761 1
5715 5757 5760 1
5716 5757 5759 1
5717 5761 5762 1
5718 5761 5763 1
5719 5764 5766 1
5720 5764 5765 1
5721 5764 5767 1
5722 5768 5770 1
5723 5768 5769 1
5724 5768 5776 1
5725 5769 5771 1
5726 5769 5772 1
5727 5769 5773 1
5728 5773 5774 1
5729 5773 5775 1
5730 5776 5778 1
5731 5776 5777 1
5732 5776 5779 1
5733 5780 5781 1
5734 5781 5783 1
5735 5781 5782 1
5736 5781 5789 1
5737 5782 5784 1
5738 5782 5785 1
5739 5782 5786 1
5740 5786 5788 1
5741 5786 5787 1
5742 5789 5791 1
5743 5789 5790 1
5744 5789 5792 1
5745 5793 5794 1
5746 5793 5795 1
5747 5793 5802 1
5748 5794 5798 1
5749 5794 5796 1
5750 5794 5797 1
5751 5798 5799 1
5752 5798 5800 1
5753 5800 5801 1
5754 5802 5805 1
5755 5802 5803 1
5756 5802 5804 1
5757 5806 5808 1
5758 5806 5807 1
5759 5806 5825 1
5760 5806 5814 1
5761 5807 5809 1
5762 5807 5810 1
5763 5807 5811 1
5764 5811 5813 1
5765 5811 5812 1
5766 5814 5816 1
5767 5814 5815 1
5768 5814 5817 1
5769 5818 5820 1
5770 5818 5826 1
5771 5818 5819 1
5772 5818 5837 1
5773 5819 5822 1
5774 5819 5823 1
5775 5819 5821 1
5776 5823 5825 1
5777 5823 5824 1
5778 5826 5829 1
5779 5826 5827 1
5780 5826 5828 1
5781 5830 5832 1
5782 5830 5831 1
5783 5830 5849 1
5784 5830 5838 1
5785 5831 5834 1
5786 5831 5833 1
5787 5831 5835 1
5788 5835 5837 1
5789 5835 5836 1
5790 5838 5840 1
5791 5838 5839 1
5792 5838 5841 1
5793 5842 5850 1
5794 5842 5843 1
5795 5842 5844 1
5796 5842 5861 1
5797 5843 5846 1
5798 5843 5845 1
5799 5843 5847 1
5800 5847 5849 1
5801 5847 5848 1
5802 5850 5852 1
5803 5850 5851 1
5804 5850 5853 1
5805 5854 5856 1
5806 5854 5855 1
5807 5854 5862 1
5808 5854 5873 1
5809 5855 5857 1
5810 5855 5858 1
5811 5855 5859 1
5812 5859 5861 1
5813 5859 5860 1
5814 5862 5865 1
5815 5862 5863 1
5816 5862 5864 1
5817 5866 5874 1
5818 5866 5867 1
5819 5866 5868 1
5820 5866 5885 1
5821 5867 5869 1
5822 5867 5870 1
5823 5867 5871 1
5824 5871 5873 1
5825 5871 5872 1
5826 5874 5876 1
5827 5874 5875 1
5828 5874 5877 1
5829 5878 5880 1
5830 5878 5886 1
5831 5878 5879 1
5832 5878 5897 1
5833 5879 5883 1
5834 5879 5882 1
5835 5879 5881 1
5836 5883 5885 1
5837 5883 5884 1
5838 5886 5887 1
5839 5886 5889 1
5840 5886 5888 1
5841 5890 5892 1
5842 5890 5891 1
5843 5890 5898 1
5844 5890 5909 1
5845 5891 5893 1
5846 5891 5894 1
5847 5891 5895 1
5848 5895 5896 1
5849 5895 5897 1
5850 5898 5899 1
5851 5898 5900 1
5852 5898 5901 1
5853 5902 5904 1
5854 5902 5910 1
5855 5902 5903 1
5856 5902 5921 1
5857 5903 5906 1
5858 5903 5907 1
5859 5903 5905 1
5860 5907 5909 1
5861 5907 5908 1
5862 5910 5913 1
5863 5910 5911 1
5864 5910 5912 1
5865 5914 5916 1
5866 5914 5915 1
5867 5914 5922 1
5868 5914 5933 1
5869 5915 5917 1
5870 5915 5919 1
5871 5915 5918 1
5872 5919 5921 1
5873 5919 5920 1
5874 5922 5924 1
5875 5922 5923 1
5876 5922 5925 1
5877 5926 5945 1
5878 5926 5927 1
5879 5926 5934 1
5880 5926 5928 1
5881 5927 5930 1
5882 5927 5929 1
5883 5927 5931 1
5884 5931 5932 1
5885 5931 5933 1
5886 5934 5937 1
5887 5934 5935 1
5888 5934 5936 1
5889 5938 5940 1
5890 5938 5946 1
5891 5938 5957 1
5892 5938 5939 1
5893 5939 5943 1
5894 5939 5942 1
5895 5939 5941 1
5896 5943 5945 1
5897 5943 5944 1
5898 5946 5948 1
5899 5946 5947 1
5900 5946 5949 1
5901 5950 5969 1
5902 5950 5951 1
5903 5950 5952 1
5904 5950 5958 1
5905 5951 5953 1
5906 5951 5954 1
5907 5951 5955 1
5908 5955 5956 1
5909 5955 5957 1
5910 5958 5961 1
5911 5958 5959 1
5912 5958 5960 1
5913 5962 5970 1
5914 5962 5964 1
5915 5962 5963 1
5916 5962 5981 1
5917 5963 5967 1
5918 5963 5966 1
5919 5963 5965 1
5920 5967 5969 1
5921 5967 5968 1
5922 5970 5972 1
5923 5970 5971 1
5924 5970 5973 1
5925 5974 5993 1
5926 5974 5975 1
5927 5974 5976 1
5928 5974 5982 1
5929 5975 5977 1
5930 5975 5978 1
5931 5975 5979 1
5932 5979 5980 1
5933 5979 5981 1
5934 5982 5983 1
5935 5982 5984 1
5936 5982 5985 1
5937 5986 5994 1
5938 5986 5988 1
5939 5986 6005 1
5940 5986 5987 1
5941 5987 5991 1
5942 5987 5989 1
5943 5987 5990 1
5944 5991 5993 1
5945 5991 5992 1
5946 5994 5996 1
5947 5994 5997 1
5948 5994 5995 1
5949 5998 6017 1
5950 5998 6000 1
5951 5998 5999 1
5952 5998 6006 1
5953 5999 6002 1
5954 5999 6003 1
5955 5999 6001 1
5956 6003 6004 1
5957 6003 6005 1
5958 6006 6008 1
5959 6006 6007 1
5960 6006 6009 1
5961 6010 6011 1
5962 6010 6029 1
5963 6010 6012 1
5964 6010 6018 1
5965 6011 6015 1
5966 6011 6013 1
5967 6011 6014 1
5968 6015 6017 1
5969 6015 6016 1
5970 6018 6019 1
5971 6018 6020 1
5972 6018 6021 1
5973 6022 6041 1
5974 6022 6024 1
5975 6022 6023 1
5976 6022 6030 1
5977 6023 6026 1
5978 6023 6025 1
5979 6023 6027 1
5980 6027 6028 1
5981 6027 6029 1
5982 6030 6031 1
5983 6030 6032 1
5984 6030 6033 1
5985 6034 6053 1
5986 6034 6035 1
5987 6034 6036 1
5988 6034 6042 1
5989 6035 6039 1
5990 6035 6037 1
5991 6035 6038 1
5992 6039 6041 1
5993 6039 6040 1
5994 6042 6044 1
5995 6042 6043 1
5996 6042 6045 1
5997 6046 6065 1
5998 6046 6054 1
5999 6046 6048 1
6000 6046 6047 1
6001 6047 6050 1
6002 6047 6051 1
6003 6047 6049 1
6004 6051 6052 1
6005 6051 6053 1
6006 6054 6057 1
6007 6054 6056 1
6008 6054 6055 1
6009 6058 6077 1
6010 6058 6060 1
6011 6058 6066 1
6012 6058 6059 1
6013 6059 6062 1
6014 6059 6061 1
6015 6059 6063 1
6016 6063 6065 1
6017 6063 6064 1
6018 6066 6068 1
6019 6066 6067 1
6020 6066 6069 1
6021 6070 6071 1
6022 6070 6072 1
6023 6070 6078 1
6024 6070 6089 1
6025 6071 6075 1
6026 6071 6073 1
6027 6071 6074 1
6028 6075 6076 1
6029 6075 6077 1
6030 6078 6079 1
6031 6078 6081 1
6032 6078 6080 1
6033 6082 6084 1
6034 6082 6101 1
6035 6082 6090 1
6036 6082 6083 1
6037 6083 6085 1
6038 6083 6086 1
6039 6083 6087 1
6040 6087 6089 1
6041 6087 6088 1
6042 6090 6093 1
6043 6090 6092 1
6044 6090 6091 1
6045 6094 6095 1
6046 6094 6096 1
6047 6094 6102 1
6048 6094 6113 1
6049 6095 6097 1
6050 6095 6099 1
6051 6095 6098 1
6052 6099 6100 1
6053 6099 6101 1
6054 6102 6103 1
6055 6102 6105 1
6056 6102 6104 1
6057 6106 6125 1
6058 6106 6114 1
6059 6106 6107 1
6060 6106 6108 1
6061 6107 6109 1
6062 6107 6110 1
6063 6107 6111 1
6064 6111 6113 1
6065 6111 6112 1
6066 6114 6115 1
6067 6114 6117 1
6068 6114 6116 1
6069 6118 6120 1
6070 6118 6119 1
6071 6118 6126 1
6072 6118 6137 1
6073 6119 6123 1
6074 6119 6121 1
6075 6119 6122 1
6076 6123 6124 1
6077 6123 6125 1
6078 6126 6127 1
6079 6126 6128 1
6080 6126 6129 1
6081 6130 6138 1
6082 6130 6131 1
6083 6130 6132 1
6084 6131 6134 1
6085 6131 6133 1
6086 6131 6135 1
6087 6135 6137 1
6088 6135 6136 1
6089 6138 6140 1
6090 6138 6141 1
6091 6138 6139 1
6092 6142 6143 1
6093 6143 6144 1
6094 6143 6145 1
6095 6143 6151 1
6096 6144 6148 1
6097 6144 6146 1
6098 6144 6147 1
6099 6148 6149 1
6100 6148 6150 1
6101 6151 6154 1
6102 6151 6152 1
6103 6151 6153 1
6104 6155 6156 1
6105 6155 6157 1
6106 6155 6164 1
6107 6156 6158 1
6108 6156 6159 1
6109 6156 6160 1
6110 6160 6161 1
6111 6160 6162 1
6112 6162 6163 1
6113 6164 6165 1
6114 6164 6167 1
6115 6164 6166 1
6116 6168 6170 1
6117 6168 6176 1
6118 6168 6169 1
6119 6168 6187 1
6120 6169 6173 1
6121 6169 6172 1
6122 6169 6171 1
6123 6173 6174 1
6124 6173 6175 1
6125 6176 6179 1
6126 6176 6178 1
6127 6176 6177 1
6128 6180 6182 1
6129 6180 6181 1
6130 6180 6188 1
6131 6180 6199 1
6132 6181 6184 1
6133 6181 6183 1
6134 6181 6185 1
6135 6185 6187 1
6136 6185 6186 1
6137 6188 6190 1
6138 6188 6189 1
6139 6188 6191 1
6140 6192 6200 1
6141 6192 6194 1
6142 6192 6193 1
6143 6192 6211 1
6144 6193 6196 1
6145 6193 6197 1
6146 6193 6195 1
6147 6197 6199 1
6148 6197 6198 1
6149 6200 6203 1
6150 6200 6201 1
6151 6200 6202 1
6152 6204 6206 1
6153 6204 6212 1
6154 6204 6205 1
6155 6204 6223 1
6156 6205 6208 1
6157 6205 6207 1
6158 6205 6209 1
6159 6209 6211 1
6160 6209 6210 1
6161 6212 6213 1
6162 6212 6215 1
6163 6212 6214 1
6164 6216 6218 1
6165 6216 6217 1
6166 6216 6224 1
6167 6216 6235 1
6168 6217 6219 1
6169 6217 6220 1
6170 6217 6221 1
6171 6221 6223 1
6172 6221 6222 1
6173 6224 6226 1
6174 6224 6225 1
6175 6224 6227 1
6176 6228 6236 1
6177 6228 6230 1
6178 6228 6229 1
6179 6228 6247 1
6180 6229 6231 1
6181 6229 6232 1
6182 6229 6233 1
6183 6233 6235 1
6184 6233 6234 1
6185 6236 6239 1
6186 6236 6237 1
6187 6236 6238 1
6188 6240 6241 1
6189 6240 6242 1
6190 6240 6248 1
6191 6240 6259 1
6192 6241 6243 1
6193 6241 6244 1
6194 6241 6245 1
6195 6245 6247 1
6196 6245 6246 1
6197 6248 6249 1
6198 6248 6250 1
6199 6248 6251 1
6200 6252 6254 1
6201 6252 6260 1
6202 6252 6271 1
6203 6252 6253 1
6204 6253 6257 1
6205 6253 6256 1
6206 6253 6255 1
6207 6257 6259 1
6208 6257 6258 1
6209 6260 6261 1
6210 6260 6263 1
6211 6260 6262 1
6212 6264 6266 1
6213 6264 6265 1
6214 6264 6272 1
6215 6264 6283 1
6216 6265 6267 1
6217 6265 6268 1
6218 6265 6269 1
6219 6269 6270 1
6220 6269 6271 1
6221 6272 6274 1
6222 6272 6273 1
6223 6272 6275 1
6224 6276 6278 1
6225 6276 6284 1
6226 6276 6295 1
6227 6276 6277 1
6228 6277 6281 1
6229 6277 6280 1
6230 6277 6279 1
6231 6281 6283 1
6232 6281 6282 1
6233 6284 6285 1
6234 6284 6286 1
6235 6284 6287 1
6236 6288 6296 1
6237 6288 6290 1
6238 6288 6289 1
6239 6288 6307 1
6240 6289 6291 1
6241 6289 6292 1
6242 6289 6293 1
6243 6293 6295 1
6244 6293 6294 1
6245 6296 6298 1
6246 6296 6299 1
6247 6296 6297 1
6248 6300 6319 1
6249 6300 6301 1
6250 6300 6308 1
6251 6300 6302 1
6252 6301 6303 1
6253 6301 6304 1
6254 6301 6305 1
6255 6305 6306 1
6256 6305 6307 1
6257 6308 6309 1
6258 6308 6310 1
6259 6308 6311 1
6260 6312 6320 1
6261 6312 6314 1
6262 6312 6313 1
6263 6312 6331 1
6264 6313 6316 1
6265 6313 6317 1
6266 6313 6315 1
6267 6317 6319 1
6268 6317 6318 1
6269 6320 6322 1
6270 6320 6323 1
6271 6320 6321 1
6272 6324 6325 1
6273 6324 6326 1
6274 6324 6343 1
6275 6324 6332 1
6276 6325 6327 1
6277 6325 6329 1
6278 6325 6328 1
6279 6329 6330 1
6280 6329 6331 1
6281 6332 6335 1
6282 6332 6333 1
6283 6332 6334 1
6284 6336 6344 1
6285 6336 6338 1
6286 6336 6337 1
6287 6336 6355 1
6288 6337 6340 1
6289 6337 6339 1
6290 6337 6341 1
6291 6341 6343 1
6292 6341 6342 1
6293 6344 6346 1
6294 6344 6347 1
6295 6344 6345 1
6296 6348 6367 1
6297 6348 6349 1
6298 6348 6350 1
6299 6348 6356 1
6300 6349 6351 1
6301 6349 6353 1
6302 6349 6352 1
6303 6353 6354 1
6304 6353 6355 1
6305 6356 6357 1
6306 6356 6358 1
6307 6356 6359 1
6308 6360 6379 1
6309 6360 6362 1
6310 6360 6361 1
6311 6360 6368 1
6312 6361 6363 1
6313 6361 6365 1
6314 6361 6364 1
6315 6365 6367 1
6316 6365 6366 1
6317 6368 6370 1
6318 6368 6371 1
6319 6368 6369 1
6320 6372 6391 1
6321 6372 6374 1
6322 6372 6380 1
6323 6372 6373 1
6324 6373 6376 1
6325 6373 6377 1
6326 6373 6375 1
6327 6377 6378 1
6328 6377 6379 1
6329 6380 6381 1
6330 6380 6382 1
6331 6380 6383 1
6332 6384 6403 1
6333 6384 6385 1
6334 6384 6386 1
6335 6384 6392 1
6336 6385 6387 1
6337 6385 6389 1
6338 6385 6388 1
6339 6389 6391 1
6340 6389 6390 1
6341 6392 6393 1
6342 6392 6394 1
6343 6392 6395 1
6344 6396 6415 1
6345 6396 6404 1
6346 6396 6398 1
6347 6396 6397 1
6348 6397 6400 1
6349 6397 6401 1
6350 6397 6399 1
6351 6401 6402 1
6352 6401 6403 1
6353 6404 6407 1
6354 6404 6406 1
6355 6404 6405 1
6356 6408 6427 1
6357 6408 6410 1
6358 6408 6409 1
6359 6408 6416 1
6360 6409 6412 1
6361 6409 6411 1
6362 6409 6413 1
6363 6413 6415 1
6364 6413 6414 1
6365 6416 6419 1
6366 6416 6417 1
6367 6416 6418 1
6368 6420 6428 1
6369 6420 6439 1
6370 6420 6421 1
6371 6420 6422 1
6372 6421 6423 1
6373 6421 6425 1
6374 6421 6424 1
6375 6425 6426 1
6376 6425 6427 1
6377 6428 6430 1
6378 6428 6431 1
6379 6428 6429 1
6380 6432 6451 1
6381 6432 6434 1
6382 6432 6433 1
6383 6432 6440 1
6384 6433 6436 1
6385 6433 6435 1
6386 6433 6437 1
6387 6437 6439 1
6388 6437 6438 1
6389 6440 6441 1
6390 6440 6442 1
6391 6440 6443 1
6392 6444 6446 1
6393 6444 6445 1
6394 6444 6463 1
6395 6444 6452 1
6396 6445 6447 1
6397 6445 6449 1
6398 6445 6448 1
6399 6449 6450 1
6400 6449 6451 1
6401 6452 6455 1
6402 6452 6453 1
6403 6452 6454 1
6404 6456 6475 1
6405 6456 6464 1
6406 6456 6458 1
6407 6456 6457 1
6408 6457 6459 1
6409 6457 6460 1
6410 6457 6461 1
6411 6461 6463 1
6412 6461 6462 1
6413 6464 6467 1
6414 6464 6465 1
6415 6464 6466 1
6416 6468 6469 1
6417 6468 6470 1
6418 6468 6487 1
6419 6468 6476 1
6420 6469 6471 1
6421 6469 6473 1
6422 6469 6472 1
6423 6473 6474 1
6424 6473 6475 1
6425 6476 6477 1
6426 6476 6478 1
6427 6476 6479 1
6428 6480 6499 1
6429 6480 6488 1
6430 6480 6482 1
6431 6480 6481 1
6432 6481 6483 1
6433 6481 6484 1
6434 6481 6485 1
6435 6485 6486 1
6436 6485 6487 1
6437 6488 6489 1
6438 6488 6490 1
6439 6488 6491 1
6440 6492 6494 1
6441 6492 6493 1
6442 6492 6500 1
6443 6493 6497 1
6444 6493 6496 1
6445 6493 6495 1
6446 6497 6498 1
6447 6497 6499 1
6448 6500 6502 1
6449 6500 6501 1
6450 6500 6503 1
6451 6504 6505 1
6452 6505 6506 1
6453 6505 6507 1
6454 6505 6513 1
6455 6506 6508 1
6456 6506 6509 1
6457 6506 6510 1
6458 6510 6512 1
6459 6510 6511 1
6460 6513 6514 1
6461 6513 6515 1
6462 6513 6516 1
6463 6517 6518 1
6464 6517 6519 1
6465 6517 6526 1
6466 6518 6522 1
6467 6518 6520 1
6468 6518 6521 1
6469 6522 6523 1
6470 6522 6524 1
6471 6524 6525 1
6472 6526 6529 1
6473 6526 6527 1
6474 6526 6528 1
6475 6530 6538 1
6476 6530 6549 1
6477 6530 6531 1
6478 6530 6532 1
6479 6531 6533 1
6480 6531 6534 1
6481 6531 6535 1
6482 6535 6536 1
6483 6535 6537 1
6484 6538 6540 1
6485 6538 6539 1
6486 6538 6541 1
6487 6542 6561 1
6488 6542 6550 1
6489 6542 6543 1
6490 6542 6544 1
6491 6543 6547 1
6492 6543 6545 1
6493 6543 6546 1
6494 6547 6548 1
6495 6547 6549 1
6496 6550 6553 1
6497 6550 6551 1
6498 6550 6552 1
6499 6554 6562 1
6500 6554 6573 1
6501 6554 6555 1
6502 6554 6556 1
6503 6555 6558 1
6504 6555 6557 1
6505 6555 6559 1
6506 6559 6560 1
6507 6559 6561 1
6508 6562 6564 1
6509 6562 6563 1
6510 6562 6565 1
6511 6566 6574 1
6512 6566 6567 1
6513 6566 6568 1
6514 6566 6585 1
6515 6567 6570 1
6516 6567 6571 1
6517 6567 6569 1
6518 6571 6573 1
6519 6571 6572 1
6520 6574 6576 1
6521 6574 6575 1
6522 6574 6577 1
6523 6578 6580 1
6524 6578 6579 1
6525 6578 6586 1
6526 6578 6597 1
6527 6579 6581 1
6528 6579 6582 1
6529 6579 6583 1
6530 6583 6585 1
6531 6583 6584 1
6532 6586 6589 1
6533 6586 6587 1
6534 6586 6588 1
6535 6590 6598 1
6536 6590 6591 1
6537 6590 6592 1
6538 6590 6609 1
6539 6591 6594 1
6540 6591 6593 1
6541 6591 6595 1
6542 6595 6597 1
6543 6595 6596 1
6544 6598 6600 1
6545 6598 6599 1
6546 6598 6601 1
6547 6602 6603 1
6548 6602 6621 1
6549 6602 6604 1
6550 6602 6610 1
6551 6603 6607 1
6552 6603 6606 1
6553 6603 6605 1
6554 6607 6609 1
6555 6607 6608 1
6556 6610 6611 1
6557 6610 6613 1
6558 6610 6612 1
6559 6614 6615 1
6560 6614 6622 1
6561 6614 6616 1
6562 6614 6633 1
6563 6615 6617 1
6564 6615 6618 1
6565 6615 6619 1
6566 6619 6620 1
6567 6619 6621 1
6568 6622 6624 1
6569 6622 6623 1
6570 6622 6625 1
6571 6626 6645 1
6572 6626 6627 1
6573 6626 6628 1
6574 6626 6634 1
6575 6627 6630 1
6576 6627 6631 1
6577 6627 6629 1
6578 6631 6633 1
6579 6631 6632 1
6580 6634 6637 1
6581 6634 6635 1
6582 6634 6636 1
6583 6638 6640 1
6584 6638 6639 1
6585 6638 6646 1
6586 6638 6657 1
6587 6639 6641 1
6588 6639 6642 1
6589 6639 6643 1
6590 6643 6644 1
6591 6643 6645 1
6592 6646 6648 1
6593 6646 6647 1
6594 6646 6649 1
6595 6650 6669 1
6596 6650 6651 1
6597 6650 6658 1
6598 6650 6652 1
6599 6651 6654 1
6600 6651 6653 1
6601 6651 6655 1
6602 6655 6656 1
6603 6655 6657 1
6604 6658 6661 1
6605 6658 6659 1
6606 6658 6660 1
6607 6662 6664 1
6608 6662 6663 1
6609 6662 6670 1
6610 6662 6681 1
6611 6663 6665 1
6612 6663 6667 1
6613 6663 6666 1
6614 6667 6669 1
6615 6667 6668 1
6616 6670 6672 1
6617 6670 6671 1
6618 6670 6673 1
6619 6674 6693 1
6620 6674 6676 1
6621 6674 6675 1
6622 6674 6682 1
6623 6675 6677 1
6624 6675 6678 1
6625 6675 6679 1
6626 6679 6680 1
6627 6679 6681 1
6628 6682 6685 1
6629 6682 6683 1
6630 6682 6684 1
6631 6686 6694 1
6632 6686 6688 1
6633 6686 6687 1
6634 6686 6705 1
6635 6687 6691 1
6636 6687 6690 1
6637 6687 6689 1
6638 6691 6693 1
6639 6691 6692 1
6640 6694 6696 1
6641 6694 6695 1
6642 6694 6697 1
6643 6698 6717 1
6644 6698 6699 1
6645 6698 6700 1
6646 6698 6706 1
6647 6699 6701 1
6648 6699 6702 1
6649 6699 6703 1
6650 6703 6704 1
6651 6703 6705 1
6652 6706 6707 1
6653 6706 6708 1
6654 6706 6709 1
6655 6710 6718 1
6656 6710 6712 1
6657 6710 6729 1
6658 6710 6711 1
6659 6711 6715 1
6660 6711 6713 1
6661 6711 6714 1
6662 6715 6717 1
6663 6715 6716 1
6664 6718 6720 1
6665 6718 6719 1
6666 6718 6721 1
6667 6722 6741 1
6668 6722 6724 1
6669 6722 6723 1
6670 6722 6730 1
6671 6723 6725 1
6672 6723 6726 1
6673 6723 6727 1
6674 6727 6728 1
6675 6727 6729 1
6676 6730 6732 1
6677 6730 6731 1
6678 6730 6733 1
6679 6734 6735 1
6680 6734 6753 1
6681 6734 6736 1
6682 6734 6742 1
6683 6735 6739 1
6684 6735 6737 1
6685 6735 6738 1
6686 6739 6741 1
6687 6739 6740 1
6688 6742 6744 1
6689 6742 6745 1
6690 6742 6743 1
6691 6746 6754 1
6692 6746 6765 1
6693 6746 6748 1
6694 6746 6747 1
6695 6747 6750 1
6696 6747 6749 1
6697 6747 6751 1
6698 6751 6752 1
6699 6751 6753 1
6700 6754 6756 1
6701 6754 6757 1
6702 6754 6755 1
6703 6758 6777 1
6704 6758 6759 1
6705 6758 6760 1
6706 6758 6766 1
6707 6759 6763 1
6708 6759 6761 1
6709 6759 6762 1
6710 6763 6765 1
6711 6763 6764 1
6712 6766 6768 1
6713 6766 6767 1
6714 6766 6769 1
6715 6770 6771 1
6716 6770 6772 1
6717 6770 6778 1
6718 6770 6789 1
6719 6771 6775 1
6720 6771 6773 1
6721 6771 6774 1
6722 6775 6776 1
6723 6775 6777 1
6724 6778 6781 1
6725 6778 6780 1
6726 6778 6779 1
6727 6782 6783 1
6728 6782 6801 1
6729 6782 6784 1
6730 6782 6790 1
6731 6783 6787 1
6732 6783 6786 1
6733 6783 6785 1
6734 6787 6789 1
6735 6787 6788 1
6736 6790 6792 1
6737 6790 6791 1
6738 6790 6793 1
6739 6794 6795 1
6740 6794 6796 1
6741 6794 6802 1
6742 6794 6813 1
6743 6795 6799 1
6744 6795 6797 1
6745 6795 6798 1
6746 6799 6800 1
6747 6799 6801 1
6748 6802 6803 1
6749 6802 6805 1
6750 6802 6804 1
6751 6806 6808 1
6752 6806 6825 1
6753 6806 6814 1
6754 6806 6807 1
6755 6807 6809 1
6756 6807 6810 1
6757 6807 6811 1
6758 6811 6813 1
6759 6811 6812 1
6760 6814 6815 1
6761 6814 6816 1
6762 6814 6817 1
6763 6818 6819 1
6764 6818 6837 1
6765 6818 6820 1
6766 6818 6826 1
6767 6819 6823 1
6768 6819 6821 1
6769 6819 6822 1
6770 6823 6824 1
6771 6823 6825 1
6772 6826 6827 1
6773 6826 6829 1
6774 6826 6828 1
6775 6830 6849 1
6776 6830 6838 1
6777 6830 6831 1
6778 6830 6832 1
6779 6831 6833 1
6780 6831 6834 1
6781 6831 6835 1
6782 6835 6836 1
6783 6835 6837 1
6784 6838 6841 1
6785 6838 6840 1
6786 6838 6839 1
6787 6842 6844 1
6788 6842 6861 1
6789 6842 6843 1
6790 6842 6850 1
6791 6843 6847 1
6792 6843 6845 1
6793 6843 6846 1
6794 6847 6848 1
6795 6847 6849 1
6796 6850 6853 1
6797 6850 6851 1
6798 6850 6852 1
6799 6854 6862 1
6800 6854 6855 1
6801 6854 6856 1
6802 6855 6858 1
6803 6855 6857 1
6804 6855 6859 1
6805 6859 6860 1
6806 6859 6861 1
6807 6862 6864 1
6808 6862 6865 1
6809 6862 6863 1
6810 6866 6867 1
6811 6867 6868 1
6812 6867 6875 1
6813 6867 6869 1
6814 6868 6872 1
6815 6868 6870 1
6816 6868 6871 1
6817 6872 6873 1
6818 6872 6874 1
6819 6875 6876 1
6820 6875 6878 1
6821 6875 6877 1
6822 6879 6880 1
6823 6879 6881 1
6824 6879 6888 1
6825 6880 6882 1
6826 6880 6883 1
6827 6880 6884 1
6828 6884 6885 1
6829 6884 6886 1
6830 6886 6887 1
6831 6888 6889 1
6832 6888 6890 1
6833 6888 6891 1
6834 6892 6894 1
6835 6892 6900 1
6836 6892 6893 1
6837 6892 6911 1
6838 6893 6895 1
6839 6893 6896 1
6840 6893 6897 1
6841 6897 6899 1
6842 6897 6898 1
6843 6900 6903 1
6844 6900 6902 1
6845 6900 6901 1
6846 6904 6906 1
6847 6904 6905 1
6848 6904 6912 1
6849 6904 6923 1
6850 6905 6908 1
6851 6905 6907 1
6852 6905 6909 1
6853 6909 6911 1
6854 6909 6910 1
6855 6912 6914 1
6856 6912 6913 1
6857 6912 6915 1
6858 6916 6924 1
6859 6916 6918 1
6860 6916 6917 1
6861 6916 6935 1
6862 6917 6920 1
6863 6917 6919 1
6864 6917 6921 1
6865 6921 6923 1
6866 6921 6922 1
6867 6924 6927 1
6868 6924 6925 1
6869 6924 6926 1
6870 6928 6930 1
6871 6928 6936 1
6872 6928 6929 1
6873 6928 6947 1
6874 6929 6932 1
6875 6929 6931 1
6876 6929 6933 1
6877 6933 6935 1
6878 6933 6934 1
6879 6936 6937 1
6880 6936 6939 1
6881 6936 6938 1
6882 6940 6942 1
6883 6940 6941 1
6884 6940 6948 1
6885 6940 6959 1
6886 6941 6943 1
6887 6941 6944 1
6888 6941 6945 1
6889 6945 6947 1
6890 6945 6946 1
6891 6948 6950 1
6892 6948 6951 1
6893 6948 6949 1
6894 6952 6960 1
6895 6952 6954 1
6896 6952 6953 1
6897 6952 6971 1
6898 6953 6955 1
6899 6953 6956 1
6900 6953 6957 1
6901 6957 6959 1
6902 6957 6958 1
6903 6960 6963 1
6904 6960 6961 1
6905 6960 6962 1
6906 6964 6965 1
6907 6964 6966 1
6908 6964 6972 1
6909 6964 6983 1
6910 6965 6967 1
6911 6965 6968 1
6912 6965 6969 1
6913 6969 6971 1
6914 6969 6970 1
6915 6972 6973 1
6916 6972 6974 1
6917 6972 6975 1
6918 6976 6978 1
6919 6976 6977 1
6920 6976 6984 1
6921 6976 6995 1
6922 6977 6979 1
6923 6977 6981 1
6924 6977 6980 1
6925 6981 6983 1
6926 6981 6982 1
6927 6984 6985 1
6928 6984 6986 1
6929 6984 6987 1
6930 6988 6990 1
6931 6988 6989 1
6932 6988 6996 1
6933 6988 7007 1
6934 6989 6991 1
6935 6989 6992 1
6936 6989 6993 1
6937 6993 6995 1
6938 6993 6994 1
6939 6996 6998 1
6940 6996 6997 1
6941 6996 6999 1
6942 7000 7002 1
6943 7000 7008 1
6944 7000 7019 1
6945 7000 7001 1
6946 7001 7005 1
6947 7001 7004 1
6948 7001 7003 1
6949 7005 7007 1
6950 7005 7006 1
6951 7008 7009 1
6952 7008 7010 1
6953 7008 7011 1
6954 7012 7020 1
6955 7012 7014 1
6956 7012 7013 1
6957 7012 7031 1
6958 7013 7016 1
6959 7013 7017 1
6960 7013 7015 1
6961 7017 7019 1
6962 7017 7018 1
6963 7020 7021 1
6964 7020 7022 1
6965 7020 7023 1
6966 7024 7043 1
6967 7024 7025 1
6968 7024 7032 1
6969 7024 7026 1
6970 7025 7029 1
6971 7025 7027 1
6972 7025 7028 1
6973 7029 7031 1
6974 7029 7030 1
6975 7032 7033 1
6976 7032 7034 1
6977 7032 7035 1
6978 7036 7044 1
6979 7036 7038 1
6980 7036 7037 1
6981 7036 7055 1
6982 7037 7040 1
6983 7037 7041 1
6984 7037 7039 1
6985 7041 7043 1
6986 7041 7042 1
6987 7044 7046 1
6988 7044 7047 1
6989 7044 7045 1
6990 7048 7049 1
6991 7048 7067 1
6992 7048 7056 1
6993 7048 7050 1
6994 7049 7051 1
6995 7049 7053 1
6996 7049 7052 1
6997 7053 7054 1
6998 7053 7055 1
6999 7056 7059 1
7000 7056 7057 1
7001 7056 7058 1
7002 7060 7079 1
7003 7060 7061 1
7004 7060 7062 1
7005 7060 7068 1
7006 7061 7064 1
7007 7061 7063 1
7008 7061 7065 1
7009 7065 7067 1
7010 7065 7066 1
7011 7068 7070 1
7012 7068 7071 1
7013 7068 7069 1
7014 7072 7091 1
7015 7072 7073 1
7016 7072 7074 1
7017 7072 7080 1
7018 7073 7075 1
7019 7073 7077 1
7020 7073 7076 1
7021 7077 7078 1
7022 7077 7079 1
7023 7080 7081 1
7024 7080 7082 1
7025 7080 7083 1
7026 7084 7103 1
7027 7084 7086 1
7028 7084 7085 1
7029 7084 7092 1
7030 7085 7087 1
7031 7085 7089 1
7032 7085 7088 1
7033 7089 7091 1
7034 7089 7090 1
7035 7092 7094 1
7036 7092 7093 1
7037 7092 7095 1
7038 7096 7115 1
7039 7096 7098 1
7040 7096 7104 1
7041 7096 7097 1
7042 7097 7100 1
7043 7097 7101 1
7044 7097 7099 1
7045 7101 7102 1
7046 7101 7103 1
7047 7104 7105 1
7048 7104 7106 1
7049 7104 7107 1
7050 7108 7127 1
7051 7108 7109 1
7052 7108 7110 1
7053 7108 7116 1
7054 7109 7111 1
7055 7109 7113 1
7056 7109 7112 1
7057 7113 7115 1
7058 7113 7114 1
7059 7116 7117 1
7060 7116 7118 1
7061 7116 7119 1
7062 7120 7139 1
7063 7120 7122 1
7064 7120 7128 1
7065 7120 7121 1
7066 7121 7124 1
7067 7121 7125 1
7068 7121 7123 1
7069 7125 7126 1
7070 7125 7127 1
7071 7128 7130 1
7072 7128 7129 1
7073 7128 7131 1
7074 7132 7151 1
7075 7132 7134 1
7076 7132 7133 1
7077 7132 7140 1
7078 7133 7136 1
7079 7133 7135 1
7080 7133 7137 1
7081 7137 7139 1
7082 7137 7138 1
7083 7140 7143 1
7084 7140 7141 1
7085 7140 7142 1
7086 7144 7152 1
7087 7144 7163 1
7088 7144 7145 1
7089 7144 7146 1
7090 7145 7148 1
7091 7145 7147 1
7092 7145 7149 1
7093 7149 7150 1
7094 7149 7151 1
7095 7152 7155 1
7096 7152 7154 1
7097 7152 7153 1
7098 7156 7175 1
7099 7156 7158 1
7100 7156 7164 1
7101 7156 7157 1
7102 7157 7160 1
7103 7157 7159 1
7104 7157 7161 1
7105 7161 7163 1
7106 7161 7162 1
7107 7164 7167 1
7108 7164 7165 1
7109 7164 7166 1
7110 7168 7170 1
7111 7168 7169 1
7112 7168 7187 1
7113 7168 7176 1
7114 7169 7171 1
7115 7169 7173 1
7116 7169 7172 1
7117 7173 7174 1
7118 7173 7175 1
7119 7176 7179 1
7120 7176 7177 1
7121 7176 7178 1
7122 7180 7199 1
7123 7180 7188 1
7124 7180 7182 1
7125 7180 7181 1
7126 7181 7183 1
7127 7181 7184 1
7128 7181 7185 1
7129 7185 7187 1
7130 7185 7186 1
7131 7188 7191 1
7132 7188 7190 1
7133 7188 7189 1
7134 7192 7193 1
7135 7192 7194 1
7136 7192 7211 1
7137 7192 7200 1
7138 7193 7195 1
7139 7193 7197 1
7140 7193 7196 1
7141 7197 7198 1
7142 7197 7199 1
7143 7200 7201 1
7144 7200 7203 1
7145 7200 7202 1
7146 7204 7206 1
7147 7204 7205 1
7148 7204 7212 1
7149 7204 7223 1
7150 7205 7207 1
7151 7205 7208 1
7152 7205 7209 1
7153 7209 7210 1
7154 7209 7211 1
7155 7212 7213 1
7156 7212 7214 1
7157 7212 7215 1
7158 7216 7218 1
7159 7216 7217 1
7160 7216 7224 1
7161 7217 7220 1
7162 7217 7221 1
7163 7217 7219 1
7164 7221 7222 1
7165 7221 7223 1
7166 7224 7226 1
7167 7224 7225 1
7168 7224 7227 1
7169 7228 7229 1
7170 7229 7230 1
7171 7229 7231 1
7172 7229 7237 1
7173 7230 7232 1
7174 7230 7233 1
7175 7230 7234 1
7176 7234 7236 1
7177 7234 7235 1
7178 7237 7238 1
7179 7237 7239 1
7180 7237 7240 1
7181 7241 7242 1
7182 7241 7250 1
7183 7241 7243 1
7184 7242 7246 1
7185 7242 7244 1
7186 7242 7245 1
7187 7246 7247 1
7188 7246 7248 1
7189 7248 7249 1
7190 7250 7251 1
7191 7250 7253 1
7192 7250 7252 1
7193 7254 7262 1
7194 7254 7273 1
7195 7254 7255 1
7196 7254 7256 1
7197 7255 7257 1
7198 7255 7258 1
7199 7255 7259 1
7200 7259 7260 1
7201 7259 7261 1
7202 7262 7264 1
7203 7262 7263 1
7204 7262 7265 1
7205 7266 7285 1
7206 7266 7274 1
7207 7266 7267 1
7208 7266 7268 1
7209 7267 7271 1
7210 7267 7269 1
7211 7267 7270 1
7212 7271 7272 1
7213 7271 7273 1
7214 7274 7276 1
7215 7274 7277 1
7216 7274 7275 1
7217 7278 7286 1
7218 7278 7297 1
7219 7278 7279 1
7220 7278 7280 1
7221 7279 7282 1
7222 7279 7281 1
7223 7279 7283 1
7224 7283 7284 1
7225 7283 7285 1
7226 7286 7288 1
7227 7286 7287 1
7228 7286 7289 1
7229 7290 7298 1
7230 7290 7309 1
7231 7290 7291 1
7232 7290 7292 1
7233 7291 7294 1
7234 7291 7295 1
7235 7291 7293 1
7236 7295 7297 1
7237 7295 7296 1
7238 7298 7300 1
7239 7298 7299 1
7240 7298 7301 1
7241 7302 7321 1
7242 7302 7303 1
7243 7302 7310 1
7244 7302 7304 1
7245 7303 7307 1
7246 7303 7306 1
7247 7303 7305 1
7248 7307 7308 1
7249 7307 7309 1
7250 7310 7312 1
7251 7310 7311 1
7252 7310 7313 1
7253 7314 7333 1
7254 7314 7322 1
7255 7314 7315 1
7256 7314 7316 1
7257 7315 7318 1
7258 7315 7317 1
7259 7315 7319 1
7260 7319 7321 1
7261 7319 7320 1
7262 7322 7324 1
7263 7322 7323 1
7264 7322 7325 1
7265 7326 7327 1
7266 7326 7345 1
7267 7326 7328 1
7268 7326 7334 1
7269 7327 7331 1
7270 7327 7330 1
7271 7327 7329 1
7272 7331 7332 1
7273 7331 7333 1
7274 7334 7335 1
7275 7334 7337 1
7276 7334 7336 1
7277 7338 7357 1
7278 7338 7339 1
7279 7338 7346 1
7280 7338 7340 1
7281 7339 7341 1
7282 7339 7342 1
7283 7339 7343 1
7284 7343 7344 1
7285 7343 7345 1
7286 7346 7348 1
7287 7346 7347 1
7288 7346 7349 1
7289 7350 7369 1
7290 7350 7351 1
7291 7350 7352 1
7292 7350 7358 1
7293 7351 7354 1
7294 7351 7355 1
7295 7351 7353 1
7296 7355 7356 1
7297 7355 7357 1
7298 7358 7361 1
7299 7358 7359 1
7300 7358 7360 1
7301 7362 7364 1
7302 7362 7363 1
7303 7362 7370 1
7304 7362 7381 1
7305 7363 7365 1
7306 7363 7366 1
7307 7363 7367 1
7308 7367 7368 1
7309 7367 7369 1
7310 7370 7371 1
7311 7370 7373 1
7312 7370 7372 1
7313 7374 7393 1
7314 7374 7375 1
7315 7374 7382 1
7316 7374 7376 1
7317 7375 7378 1
7318 7375 7377 1
7319 7375 7379 1
7320 7379 7380 1
7321 7379 7381 1
7322 7382 7385 1
7323 7382 7383 1
7324 7382 7384 1
7325 7386 7388 1
7326 7386 7387 1
7327 7386 7394 1
7328 7386 7405 1
7329 7387 7389 1
7330 7387 7391 1
7331 7387 7390 1
7332 7391 7393 1
7333 7391 7392 1
7334 7394 7395 1
7335 7394 7397 1
7336 7394 7396 1
7337 7398 7417 1
7338 7398 7400 1
7339 7398 7399 1
7340 7398 7406 1
7341 7399 7401 1
7342 7399 7402 1
7343 7399 7403 1
7344 7403 7404 1
7345 7403 7405 1
7346 7406 7409 1
7347 7406 7407 1
7348 7406 7408 1
7349 7410 7412 1
7350 7410 7418 1
7351 7410 7411 1
7352 7410 7429 1
7353 7411 7415 1
7354 7411 7414 1
7355 7411 7413 1
7356 7415 7417 1
7357 7415 7416 1
7358 7418 7421 1
7359 7418 7419 1
7360 7418 7420 1
7361 7422 7441 1
7362 7422 7424 1
7363 7422 7423 1
7364 7422 7430 1
7365 7423 7426 1
7366 7423 7427 1
7367 7423 7425 1
7368 7427 7428 1
7369 7427 7429 1
7370 7430 7431 1
7371 7430 7433 1
7372 7430 7432 1
7373 7434 7442 1
7374 7434 7436 1
7375 7434 7453 1
7376 7434 7435 1
7377 7435 7439 1
7378 7435 7437 1
7379 7435 7438 1
7380 7439 7441 1
7381 7439 7440 1
7382 7442 7444 1
7383 7442 7443 1
7384 7442 7445 1
7385 7446 7465 1
7386 7446 7448 1
7387 7446 7447 1
7388 7446 7454 1
7389 7447 7449 1
7390 7447 7450 1
7391 7447 7451 1
7392 7451 7452 1
7393 7451 7453 1
7394 7454 7455 1
7395 7454 7457 1
7396 7454 7456 1
7397 7458 7466 1
7398 7458 7460 1
7399 7458 7459 1
7400 7458 7477 1
7401 7459 7463 1
7402 7459 7461 1
7403 7459 7462 1
7404 7463 7465 1
7405 7463 7464 1
7406 7466 7468 1
7407 7466 7469 1
7408 7466 7467 1
7409 7470 7478 1
7410 7470 7472 1
7411 7470 7471 1
7412 7470 7489 1
7413 7471 7474 1
7414 7471 7473 1
7415 7471 7475 1
7416 7475 7476 1
7417 7475 7477 1
7418 7478 7480 1
7419 7478 7481 1
7420 7478 7479 1
7421 7482 7501 1
7422 7482 7483 1
7423 7482 7484 1
7424 7482 7490 1
7425 7483 7487 1
7426 7483 7485 1
7427 7483 7486 1
7428 7487 7489 1
7429 7487 7488 1
7430 7490 7492 1
7431 7490 7491 1
7432 7490 7493 1
7433 7494 7513 1
7434 7494 7495 1
7435 7494 7496 1
7436 7494 7502 1
7437 7495 7499 1
7438 7495 7497 1
7439 7495 7498 1
7440 7499 7500 1
7441 7499 7501 1
7442 7502 7505 1
7443 7502 7504 1
7444 7502 7503 1
7445 7506 7507 1
7446 7506 7525 1
7447 7506 7508 1
7448 7506 7514 1
7449 7507 7509 1
7450 7507 7511 1
7451 7507 7510 1
7452 7511 7513 1
7453 7511 7512 1
7454 7514 7516 1
7455 7514 7515 1
7456 7514 7517 1
7457 7518 7537 1
7458 7518 7519 1
7459 7518 7520 1
7460 7518 7526 1
7461 7519 7523 1
7462 7519 7521 1
7463 7519 7522 1
7464 7523 7524 1
7465 7523 7525 1
7466 7526 7527 1
7467 7526 7529 1
7468 7526 7528 1
7469 7530 7532 1
7470 7530 7549 1
7471 7530 7538 1
7472 7530 7531 1
7473 7531 7533 1
7474 7531 7534 1
7475 7531 7535 1
7476 7535 7536 1
7477 7535 7537 1
7478 7538 7539 1
7479 7538 7540 1
7480 7538 7541 1
7481 7542 7543 1
7482 7542 7561 1
7483 7542 7544 1
7484 7542 7550 1
7485 7543 7547 1
7486 7543 7545 1
7487 7543 7546 1
7488 7547 7548 1
7489 7547 7549 1
7490 7550 7551 1
7491 7550 7552 1
7492 7550 7553 1
7493 7554 7573 1
7494 7554 7562 1
7495 7554 7555 1
7496 7554 7556 1
7497 7555 7557 1
7498 7555 7558 1
7499 7555 7559 1
7500 7559 7560 1
7501 7559 7561 1
7502 7562 7565 1
7503 7562 7564 1
7504 7562 7563 1
7505 7566 7568 1
7506 7566 7585 1
7507 7566 7567 1
7508 7566 7574 1
7509 7567 7571 1
7510 7567 7569 1
7511 7567 7570 1
7512 7571 7572 1
7513 7571 7573 1
7514 7574 7577 1
7515 7574 7575 1
7516 7574 7576 1
7517 7578 7586 1
7518 7578 7579 1
7519 7578 7580 1
7520 7579 7582 1
7521 7579 7581 1
7522 7579 7583 1
7523 7583 7584 1
7524 7583 7585 1
7525 7586 7589 1
7526 7586 7587 1
7527 7586 7588 1
7528 7590 7591 1
7529 7591 7592 1
7530 7591 7599 1
7531 7591 7593 1
7532 7592 7596 1
7533 7592 7594 1
7534 7592 7595 1
7535 7596 7597 1
7536 7596 7598 1
7537 7599 7600 1
7538 7599 7602 1
7539 7599 7601 1
7540 7603 7604 1
7541 7603 7605 1
7542 7603 7612 1
7543 7604 7606 1
7544 7604 7607 1
7545 7604 7608 1
7546 7608 7609 1
7547 7608 7610 1
7548 7610 7611 1
7549 7612 7613 1
7550 7612 7614 1
7551 7612 7615 1
7552 7616 7618 1
7553 7616 7617 1
7554 7616 7635 1
7555 7616 7624 1
7556 7617 7619 1
7557 7617 7620 1
7558 7617 7621 1
7559 7621 7623 1
7560 7621 7622 1
7561 7624 7626 1
7562 7624 7625 1
7563 7624 7627 1
7564 7628 7630 1
7565 7628 7636 1
7566 7628 7629 1
7567 7628 7647 1
7568 7629 7632 1
7569 7629 7631 1
7570 7629 7633 1
7571 7633 7635 1
7572 7633 7634 1
7573 7636 7639 1
7574 7636 7638 1
7575 7636 7637 1
7576 7640 7648 1
7577 7640 7642 1
7578 7640 7641 1
7579 7640 7659 1
7580 7641 7644 1
7581 7641 7643 1
7582 7641 7645 1
7583 7645 7647 1
7584 7645 7646 1
7585 7648 7651 1
7586 7648 7649 1
7587 7648 7650 1
7588 7652 7654 1
7589 7652 7660 1
7590 7652 7653 1
7591 7652 7671 1
7592 7653 7656 1
7593 7653 7655 1
7594 7653 7657 1
7595 7657 7659 1
7596 7657 7658 1
7597 7660 7661 1
7598 7660 7663 1
7599 7660 7662 1
7600 7664 7666 1
7601 7664 7665 1
7602 7664 7672 1
7603 7664 7683 1
7604 7665 7667 1
7605 7665 7668 1
7606 7665 7669 1
7607 7669 7671 1
7608 7669 7670 1
7609 7672 7675 1
7610 7672 7673 1
7611 7672 7674 1
7612 7676 7684 1
7613 7676 7678 1
7614 7676 7677 1
7615 7676 7695 1
7616 7677 7679 1
7617 7677 7680 1
7618 7677 7681 1
7619 7681 7683 1
7620 7681 7682 1
7621 7684 7686 1
7622 7684 7687 1
7623 7684 7685 1
7624 7688 7689 1
7625 7688 7690 1
7626 7688 7696 1
7627 7688 7707 1
7628 7689 7691 1
7629 7689 7692 1
7630 7689 7693 1
7631 7693 7695 1
7632 7693 7694 1
7633 7696 7697 1
7634 7696 7698 1
7635 7696 7699 1
7636 7700 7702 1
7637 7700 7701 1
7638 7700 7708 1
7639 7700 7719 1
7640 7701 7703 1
7641 7701 7704 1
7642 7701 7705 1
7643 7705 7707 1
7644 7705 7706 1
7645 7708 7709 1
7646 7708 7710 1
7647 7708 7711 1
7648 7712 7714 1
7649 7712 7713 1
7650 7712 7720 1
7651 7712 7731 1
7652 7713 7715 1
7653 7713 7716 1
7654 7713 7717 1
7655 7717 7719 1
7656 7717 7718 1
7657 7720 7722 1
7658 7720 7721 1
7659 7720 7723 1
7660 7724 7726 1
7661 7724 7732 1
7662 7724 7743 1
7663 7724 7725 1
7664 7725 7729 1
7665 7725 7728 1
7666 7725 7727 1
7667 7729 7731 1
7668 7729 7730 1
7669 7732 7733 1
7670 7732 7734 1
7671 7732 7735 1
7672 7736 7744 1
7673 7736 7738 1
7674 7736 7737 1
7675 7736 7755 1
7676 7737 7740 1
7677 7737 7741 1
7678 7737 7739 1
7679 7741 7743 1
7680 7741 7742 1
7681 7744 7745 1
7682 7744 7746 1
7683 7744 7747 1
7684 7748 7750 1
7685 7748 7756 1
7686 7748 7767 1
7687 7748 7749 1
7688 7749 7753 1
7689 7749 7752 1
7690 7749 7751 1
7691 7753 7755 1
7692 7753 7754 1
7693 7756 7757 1
7694 7756 7758 1
7695 7756 7759 1
7696 7760 7768 1
7697 7760 7762 1
7698 7760 7761 1
7699 7760 7779 1
7700 7761 7763 1
7701 7761 7764 1
7702 7761 7765 1
7703 7765 7767 1
7704 7765 7766 1
7705 7768 7771 1
7706 7768 7769 1
7707 7768 7770 1
7708 7772 7773 1
7709 7772 7791 1
7710 7772 7780 1
7711 7772 7774 1
7712 7773 7777 1
7713 7773 7775 1
7714 7773 7776 1
7715 7777 7779 1
7716 7777 7778 1
7717 7780 7783 1
7718 7780 7781 1
7719 7780 7782 1
7720 7784 7803 1
7721 7784 7785 1
7722 7784 7786 1
7723 7784 7792 1
7724 7785 7787 1
7725 7785 7789 1
7726 7785 7788 1
7727 7789 7791 1
7728 7789 7790 1
7729 7792 7793 1
7730 7792 7794 1
7731 7792 7795 1
7732 7796 7815 1
7733 7796 7797 1
7734 7796 7798 1
7735 7796 7804 1
7736 7797 7799 1
7737 7797 7801 1
7738 7797 7800 1
7739 7801 7802 1
7740 7801 7803 1
7741 7804 7805 1
7742 7804 7806 1
7743 7804 7807 1
7744 7808 7827 1
7745 7808 7810 1
7746 7808 7809 1
7747 7808 7816 1
7748 7809 7811 1
7749 7809 7812 1
7750 7809 7813 1
7751 7813 7814 1
7752 7813 7815 1
7753 7816 7818 1
7754 7816 7817 1
7755 7816 7819 1
7756 7820 7839 1
7757 7820 7822 1
7758 7820 7828 1
7759 7820 7821 1
7760 7821 7824 1
7761 7821 7825 1
7762 7821 7823 1
7763 7825 7826 1
7764 7825 7827 1
7765 7828 7829 1
7766 7828 7830 1
7767 7828 7831 1
7768 7832 7851 1
7769 7832 7834 1
7770 7832 7833 1
7771 7832 7840 1
7772 7833 7836 1
7773 7833 7837 1
7774 7833 7835 1
7775 7837 7838 1
7776 7837 7839 1
7777 7840 7841 1
7778 7840 7842 1
7779 7840 7843 1
7780 7844 7863 1
7781 7844 7846 1
7782 7844 7852 1
7783 7844 7845 1
7784 7845 7848 1
7785 7845 7849 1
7786 7845 7847 1
7787 7849 7850 1
7788 7849 7851 1
7789 7852 7854 1
7790 7852 7853 1
7791 7852 7855 1
7792 7856 7875 1
7793 7856 7858 1
7794 7856 7857 1
7795 7856 7864 1
7796 7857 7860 1
7797 7857 7861 1
7798 7857 7859 1
7799 7861 7862 1
7800 7861 7863 1
7801 7864 7867 1
7802 7864 7865 1
7803 7864 7866 1
7804 7868 7876 1
7805 7868 7887 1
7806 7868 7870 1
7807 7868 7869 1
7808 7869 7872 1
7809 7869 7871 1
7810 7869 7873 1
7811 7873 7874 1
7812 7873 7875 1
7813 7876 7879 1
7814 7876 7878 1
7815 7876 7877 1
7816 7880 7899 1
7817 7880 7888 1
7818 7880 7882 1
7819 7880 7881 1
7820 7881 7885 1
7821 7881 7884 1
7822 7881 7883 1
7823 7885 7886 1
7824 7885 7887 1
7825 7888 7891 1
7826 7888 7889 1
7827 7888 7890 1
7828 7892 7911 1
7829 7892 7900 1
7830 7892 7894 1
7831 7892 7893 1
7832 7893 7895 1
7833 7893 7896 1
7834 7893 7897 1
7835 7897 7898 1
7836 7897 7899 1
7837 7900 7903 1
7838 7900 7902 1
7839 7900 7901 1
7840 7904 7905 1
7841 7904 7906 1
7842 7904 7912 1
7843 7904 7923 1
7844 7905 7907 1
7845 7905 7908 1
7846 7905 7909 1
7847 7909 7910 1
7848 7909 7911 1
7849 7912 7913 1
7850 7912 7915 1
7851 7912 7914 1
7852 7916 7917 1
7853 7916 7918 1
7854 7916 7935 1
7855 7916 7924 1
7856 7917 7919 1
7857 7917 7920 1
7858 7917 7921 1
7859 7921 7922 1
7860 7921 7923 1
7861 7924 7925 1
7862 7924 7927 1
7863 7924 7926 1
7864 7928 7930 1
7865 7928 7929 1
7866 7928 7936 1
7867 7928 7947 1
7868 7929 7931 1
7869 7929 7932 1
7870 7929 7933 1
7871 7933 7935 1
7872 7933 7934 1
7873 7936 7937 1
7874 7936 7938 1
7875 7936 7939 1
7876 7940 7942 1
7877 7940 7941 1
7878 7940 7948 1
7879 7941 7944 1
7880 7941 7943 1
7881 7941 7945 1
7882 7945 7947 1
7883 7945 7946 1
7884 7948 7950 1
7885 7948 7949 1
7886 7948 7951 1
7887 7952 7953 1
7888 7953 7954 1
7889 7953 7955 1
7890 7953 7961 1
7891 7954 7956 1
7892 7954 7957 1
7893 7954 7958 1
7894 7958 7960 1
7895 7958 7959 1
7896 7961 7962 1
7897 7961 7963 1
7898 7961 7964 1
7899 7965 7974 1
7900 7965 7966 1
7901 7965 7967 1
7902 7966 7968 1
7903 7966 7969 1
7904 7966 7970 1
7905 7970 7971 1
7906 7970 7972 1
7907 7972 7973 1
7908 7974 7975 1
7909 7974 7977 1
7910 7974 7976 1
7911 7978 7986 1
7912 7978 7997 1
7913 7978 7979 1
7914 7978 7980 1
7915 7979 7981 1
7916 7979 7982 1
7917 7979 7983 1
7918 7983 7984 1
7919 7983 7985 1
7920 7986 7988 1
7921 7986 7987 1
7922 7986 7989 1
7923 7990 8009 1
7924 7990 7998 1
7925 7990 7992 1
7926 7990 7991 1
7927 7991 7994 1
7928 7991 7993 1
7929 7991 7995 1
7930 7995 7996 1
7931 7995 7997 1
7932 7998 8000 1
7933 7998 7999 1
7934 7998 8001 1
7935 8002 8010 1
7936 8002 8003 1
7937 8002 8021 1
7938 8002 8004 1
7939 8003 8007 1
7940 8003 8006 1
7941 8003 8005 1
7942 8007 8008 1
7943 8007 8009 1
7944 8010 8012 1
7945 8010 8011 1
7946 8010 8013 1
7947 8014 8022 1
7948 8014 8033 1
7949 8014 8015 1
7950 8014 8016 1
7951 8015 8019 1
7952 8015 8018 1
7953 8015 8017 1
7954 8019 8021 1
7955 8019 8020 1
7956 8022 8024 1
7957 8022 8023 1
7958 8022 8025 1
7959 8026 8045 1
7960 8026 8027 1
7961 8026 8034 1
7962 8026 8028 1
7963 8027 8031 1
7964 8027 8030 1
7965 8027 8029 1
7966 8031 8032 1
7967 8031 8033 1
7968 8034 8036 1
7969 8034 8035 1
7970 8034 8037 1
7971 8038 8057 1
7972 8038 8046 1
7973 8038 8039 1
7974 8038 8040 1
7975 8039 8043 1
7976 8039 8042 1
7977 8039 8041 1
7978 8043 8045 1
7979 8043 8044 1
7980 8046 8048 1
7981 8046 8047 1
7982 8046 8049 1
7983 8050 8051 1
7984 8050 8069 1
7985 8050 8058 1
7986 8050 8052 1
7987 8051 8054 1
7988 8051 8055 1
7989 8051 8053 1
7990 8055 8057 1
7991 8055 8056 1
7992 8058 8060 1
7993 8058 8059 1
7994 8058 8061 1
7995 8062 8081 1
7996 8062 8063 1
7997 8062 8070 1
7998 8062 8064 1
7999 8063 8066 1
8000 8063 8065 1
8001 8063 8067 1
8002 8067 8068 1
8003 8067 8069 1
8004 8070 8071 1
8005 8070 8073 1
8006 8070 8072 1
8007 8074 8093 1
8008 8074 8075 1
8009 8074 8076 1
8010 8074 8082 1
8011 8075 8077 1
8012 8075 8078 1
8013 8075 8079 1
8014 8079 8080 1
8015 8079 8081 1
8016 8082 8085 1
8017 8082 8083 1
8018 8082 8084 1
8019 8086 8105 1
8020 8086 8087 1
8021 8086 8094 1
8022 8086 8088 1
8023 8087 8089 1
8024 8087 8090 1
8025 8087 8091 1
8026 8091 8092 1
8027 8091 8093 1
8028 8094 8095 1
8029 8094 8097 1
8030 8094 8096 1
8031 8098 8100 1
8032 8098 8117 1
8033 8098 8099 1
8034 8098 8106 1
8035 8099 8102 1
8036 8099 8101 1
8037 8099 8103 1
8038 8103 8104 1
8039 8103 8105 1
8040 8106 8109 1
8041 8106 8107 1
8042 8106 8108 1
8043 8110 8112 1
8044 8110 8129 1
8045 8110 8111 1
8046 8110 8118 1
8047 8111 8113 1
8048 8111 8115 1
8049 8111 8114 1
8050 8115 8116 1
8051 8115 8117 1
8052 8118 8119 1
8053 8118 8121 1
8054 8118 8120 1
8055 8122 8124 1
8056 8122 8123 1
8057 8122 8141 1
8058 8122 8130 1
8059 8123 8125 1
8060 8123 8126 1
8061 8123 8127 1
8062 8127 8129 1
8063 8127 8128 1
8064 8130 8133 1
8065 8130 8131 1
8066 8130 8132 1
8067 8134 8136 1
8068 8134 8153 1
8069 8134 8142 1
8070 8134 8135 1
8071 8135 8139 1
8072 8135 8138 1
8073 8135 8137 1
8074 8139 8141 1
8075 8139 8140 1
8076 8142 8145 1
8077 8142 8143 1
8078 8142 8144 1
8079 8146 8148 1
8080 8146 8147 1
8081 8146 8165 1
8082 8146 8154 1
8083 8147 8150 1
8084 8147 8151 1
8085 8147 8149 1
8086 8151 8153 1
8087 8151 8152 1
8088 8154 8155 1
8089 8154 8157 1
8090 8154 8156 1
8091 8158 8160 1
8092 8158 8166 1
8093 8158 8177 1
8094 8158 8159 1
8095 8159 8163 1
8096 8159 8161 1
8097 8159 8162 1
8098 8163 8165 1
8099 8163 8164 1
8100 8166 8167 1
8101 8166 8169 1
8102 8166 8168 1
8103 8170 8178 1
8104 8170 8172 1
8105 8170 8171 1
8106 8170 8189 1
8107 8171 8173 1
8108 8171 8174 1
8109 8171 8175 1
8110 8175 8176 1
8111 8175 8177 1
8112 8178 8180 1
8113 8178 8181 1
8114 8178 8179 1
8115 8182 8190 1
8116 8182 8184 1
8117 8182 8183 1
8118 8182 8201 1
8119 8183 8186 1
8120 8183 8187 1
8121 8183 8185 1
8122 8187 8189 1
8123 8187 8188 1
8124 8190 8192 1
8125 8190 8193 1
8126 8190 8191 1
8127 8194 8213 1
8128 8194 8195 1
8129 8194 8196 1
8130 8194 8202 1
8131 8195 8197 1
8132 8195 8199 1
8133 8195 8198 1
8134 8199 8200 1
8135 8199 8201 1
8136 8202 8204 1
8137 8202 8205 1
8138 8202 8203 1
8139 8206 8225 1
8140 8206 8207 1
8141 8206 8208 1
8142 8206 8214 1
8143 8207 8211 1
8144 8207 8209 1
8145 8207 8210 1
8146 8211 8213 1
8147 8211 8212 1
8148 8214 8216 1
8149 8214 8217 1
8150 8214 8215 1
8151 8218 8237 1
8152 8218 8219 1
8153 8218 8220 1
8154 8218 8226 1
8155 8219 8223 1
8156 8219 8221 1
8157 8219 8222 1
8158 8223 8224 1
8159 8223 8225 1
8160 8226 8229 1
8161 8226 8227 1
8162 8226 8228 1
8163 8230 8231 1
8164 8230 8249 1
8165 8230 8232 1
8166 8230 8238 1
8167 8231 8233 1
8168 8231 8235 1
8169 8231 8234 1
8170 8235 8237 1
8171 8235 8236 1
8172 8238 8240 1
8173 8238 8239 1
8174 8238 8241 1
8175 8242 8261 1
8176 8242 8243 1
8177 8242 8244 1
8178 8242 8250 1
8179 8243 8247 1
8180 8243 8245 1
8181 8243 8246 1
8182 8247 8248 1
8183 8247 8249 1
8184 8250 8251 1
8185 8250 8253 1
8186 8250 8252 1
8187 8254 8256 1
8188 8254 8255 1
8189 8254 8273 1
8190 8254 8262 1
8191 8255 8259 1
8192 8255 8257 1
8193 8255 8258 1
8194 8259 8260 1
8195 8259 8261 1
8196 8262 8265 1
8197 8262 8263 1
8198 8262 8264 1
8199 8266 8285 1
8200 8266 8268 1
8201 8266 8267 1
8202 8266 8274 1
8203 8267 8269 1
8204 8267 8270 1
8205 8267 8271 1
8206 8271 8272 1
8207 8271 8273 1
8208 8274 8275 1
8209 8274 8276 1
8210 8274 8277 1
8211 8278 8280 1
8212 8278 8297 1
8213 8278 8286 1
8214 8278 8279 1
8215 8279 8281 1
8216 8279 8282 1
8217 8279 8283 1
8218 8283 8284 1
8219 8283 8285 1
8220 8286 8289 1
8221 8286 8288 1
8222 8286 8287 1
8223 8290 8309 1
8224 8290 8298 1
8225 8290 8292 1
8226 8290 8291 1
8227 8291 8293 1
8228 8291 8294 1
8229 8291 8295 1
8230 8295 8296 1
8231 8295 8297 1
8232 8298 8301 1
8233 8298 8299 1
8234 8298 8300 1
8235 8302 8310 1
8236 8302 8303 1
8237 8302 8304 1
8238 8303 8306 1
8239 8303 8305 1
8240 8303 8307 1
8241 8307 8308 1
8242 8307 8309 1
8243 8310 8313 1
8244 8310 8311 1
8245 8310 8312 1
8246 8314 8315 1
8247 8315 8323 1
8248 8315 8316 1
8249 8315 8317 1
8250 8316 8318 1
8251 8316 8319 1
8252 8316 8320 1
8253 8320 8321 1
8254 8320 8322 1
8255 8323 8324 1
8256 8323 8325 1
8257 8323 8326 1
8258 8327 8328 1
8259 8327 8329 1
8260 8327 8336 1
8261 8328 8330 1
8262 8328 8331 1
8263 8328 8332 1
8264 8332 8333 1
8265 8332 8334 1
8266 8334 8335 1
8267 8336 8337 1
8268 8336 8338 1
8269 8336 8339 1
8270 8340 8342 1
8271 8340 8341 1
8272 8340 8359 1
8273 8340 8348 1
8274 8341 8343 1
8275 8341 8344 1
8276 8341 8345 1
8277 8345 8347 1
8278 8345 8346 1
8279 8348 8350 1
8280 8348 8349 1
8281 8348 8351 1
8282 8352 8354 1
8283 8352 8360 1
8284 8352 8353 1
8285 8352 8371 1
8286 8353 8356 1
8287 8353 8355 1
8288 8353 8357 1
8289 8357 8359 1
8290 8357 8358 1
8291 8360 8363 1
8292 8360 8361 1
8293 8360 8362 1
8294 8364 8372 1
8295 8364 8366 1
8296 8364 8365 1
8297 8364 8383 1
8298 8365 8368 1
8299 8365 8367 1
8300 8365 8369 1
8301 8369 8371 1
8302 8369 8370 1
8303 8372 8375 1
8304 8372 8373 1
8305 8372 8374 1
8306 8376 8378 1
8307 8376 8384 1
8308 8376 8377 1
8309 8376 8395 1
8310 8377 8380 1
8311 8377 8379 1
8312 8377 8381 1
8313 8381 8383 1
8314 8381 8382 1
8315 8384 8385 1
8316 8384 8387 1
8317 8384 8386 1
8318 8388 8390 1
8319 8388 8389 1
8320 8388 8396 1
8321 8388 8407 1
8322 8389 8391 1
8323 8389 8392 1
8324 8389 8393 1
8325 8393 8395 1
8326 8393 8394 1
8327 8396 8399 1
8328 8396 8397 1
8329 8396 8398 1
8330 8400 8408 1
8331 8400 8402 1
8332 8400 8401 1
8333 8400 8419 1
8334 8401 8403 1
8335 8401 8404 1
8336 8401 8405 1
8337 8405 8407 1
8338 8405 8406 1
8339 8408 8410 1
8340 8408 8411 1
8341 8408 8409 1
8342 8412 8413 1
8343 8412 8414 1
8344 8412 8420 1
8345 8412 8431 1
8346 8413 8415 1
8347 8413 8416 1
8348 8413 8417 1
8349 8417 8419 1
8350 8417 8418 1
8351 8420 8421 1
8352 8420 8422 1
8353 8420 8423 1
8354 8424 8426 1
8355 8424 8425 1
8356 8424 8432 1
8357 8424 8443 1
8358 8425 8427 1
8359 8425 8428 1
8360 8425 8429 1
8361 8429 8431 1
8362 8429 8430 1
8363 8432 8433 1
8364 8432 8434 1
8365 8432 8435 1
8366 8436 8438 1
8367 8436 8444 1
8368 8436 8437 1
8369 8436 8455 1
8370 8437 8440 1
8371 8437 8441 1
8372 8437 8439 1
8373 8441 8443 1
8374 8441 8442 1
8375 8444 8446 1
8376 8444 8447 1
8377 8444 8445 1
8378 8448 8450 1
8379 8448 8456 1
8380 8448 8467 1
8381 8448 8449 1
8382 8449 8453 1
8383 8449 8452 1
8384 8449 8451 1
8385 8453 8455 1
8386 8453 8454 1
8387 8456 8457 1
8388 8456 8458 1
8389 8456 8459 1
8390 8460 8468 1
8391 8460 8462 1
8392 8460 8461 1
8393 8460 8479 1
8394 8461 8464 1
8395 8461 8465 1
8396 8461 8463 1
8397 8465 8467 1
8398 8465 8466 1
8399 8468 8471 1
8400 8468 8469 1
8401 8468 8470 1
8402 8472 8474 1
8403 8472 8480 1
8404 8472 8491 1
8405 8472 8473 1
8406 8473 8477 1
8407 8473 8476 1
8408 8473 8475 1
8409 8477 8479 1
8410 8477 8478 1
8411 8480 8481 1
8412 8480 8482 1
8413 8480 8483 1
8414 8484 8503 1
8415 8484 8485 1
8416 8484 8486 1
8417 8484 8492 1
8418 8485 8487 1
8419 8485 8488 1
8420 8485 8489 1
8421 8489 8491 1
8422 8489 8490 1
8423 8492 8495 1
8424 8492 8493 1
8425 8492 8494 1
8426 8496 8504 1
8427 8496 8498 1
8428 8496 8497 1
8429 8496 8515 1
8430 8497 8501 1
8431 8497 8499 1
8432 8497 8500 1
8433 8501 8503 1
8434 8501 8502 1
8435 8504 8507 1
8436 8504 8505 1
8437 8504 8506 1
8438 8508 8527 1
8439 8508 8509 1
8440 8508 8510 1
8441 8508 8516 1
8442 8509 8511 1
8443 8509 8512 1
8444 8509 8513 1
8445 8513 8514 1
8446 8513 8515 1
8447 8516 8517 1
8448 8516 8518 1
8449 8516 8519 1
8450 8520 8539 1
8451 8520 8521 1
8452 8520 8522 1
8453 8520 8528 1
8454 8521 8525 1
8455 8521 8523 1
8456 8521 8524 1
8457 8525 8527 1
8458 8525 8526 1
8459 8528 8529 1
8460 8528 8530 1
8461 8528 8531 1
8462 8532 8551 1
8463 8532 8534 1
8464 8532 8533 1
8465 8532 8540 1
8466 8533 8535 1
8467 8533 8536 1
8468 8533 8537 1
8469 8537 8538 1
8470 8537 8539 1
8471 8540 8542 1
8472 8540 8541 1
8473 8540 8543 1
8474 8544 8545 1
8475 8544 8563 1
8476 8544 8546 1
8477 8544 8552 1
8478 8545 8549 1
8479 8545 8547 1
8480 8545 8548 1
8481 8549 8551 1
8482 8549 8550 1
8483 8552 8553 1
8484 8552 8554 1
8485 8552 8555 1
8486 8556 8575 1
8487 8556 8558 1
8488 8556 8557 1
8489 8556 8564 1
8490 8557 8560 1
8491 8557 8559 1
8492 8557 8561 1
8493 8561 8562 1
8494 8561 8563 1
8495 8564 8565 1
8496 8564 8566 1
8497 8564 8567 1
8498 8568 8587 1
8499 8568 8570 1
8500 8568 8576 1
8501 8568 8569 1
8502 8569 8572 1
8503 8569 8573 1
8504 8569 8571 1
8505 8573 8574 1
8506 8573 8575 1
8507 8576 8578 1
8508 8576 8577 1
8509 8576 8579 1
8510 8580 8599 1
8511 8580 8582 1
8512 8580 8588 1
8513 8580 8581 1
8514 8581 8584 1
8515 8581 8585 1
8516 8581 8583 1
8517 8585 8586 1
8518 8585 8587 1
8519 8588 8591 1
8520 8588 8589 1
8521 8588 8590 1
8522 8592 8611 1
8523 8592 8594 1
8524 8592 8600 1
8525 8592 8593 1
8526 8593 8596 1
8527 8593 8595 1
8528 8593 8597 1
8529 8597 8598 1
8530 8597 8599 1
8531 8600 8602 1
8532 8600 8601 1
8533 8600 8603 1
8534 8604 8623 1
8535 8604 8612 1
8536 8604 8606 1
8537 8604 8605 1
8538 8605 8609 1
8539 8605 8608 1
8540 8605 8607 1
8541 8609 8610 1
8542 8609 8611 1
8543 8612 8615 1
8544 8612 8614 1
8545 8612 8613 1
8546 8616 8635 1
8547 8616 8624 1
8548 8616 8618 1
8549 8616 8617 1
8550 8617 8619 1
8551 8617 8620 1
8552 8617 8621 1
8553 8621 8623 1
8554 8621 8622 1
8555 8624 8627 1
8556 8624 8626 1
8557 8624 8625 1
8558 8628 8629 1
8559 8628 8630 1
8560 8628 8636 1
8561 8628 8647 1
8562 8629 8631 1
8563 8629 8632 1
8564 8629 8633 1
8565 8633 8634 1
8566 8633 8635 1
8567 8636 8637 1
8568 8636 8639 1
8569 8636 8638 1
8570 8640 8641 1
8571 8640 8642 1
8572 8640 8659 1
8573 8640 8648 1
8574 8641 8643 1
8575 8641 8644 1
8576 8641 8645 1
8577 8645 8647 1
8578 8645 8646 1
8579 8648 8649 1
8580 8648 8651 1
8581 8648 8650 1
8582 8652 8654 1
8583 8652 8653 1
8584 8652 8660 1
8585 8652 8671 1
8586 8653 8655 1
8587 8653 8657 1
8588 8653 8656 1
8589 8657 8658 1
8590 8657 8659 1
8591 8660 8661 1
8592 8660 8662 1
8593 8660 8663 1
8594 8664 8666 1
8595 8664 8665 1
8596 8664 8672 1
8597 8665 8668 1
8598 8665 8667 1
8599 8665 8669 1
8600 8669 8671 1
8601 8669 8670 1
8602 8672 8674 1
8603 8672 8673 1
8604 8672 8675 1
8605 8676 8677 1
8606 8677 8678 1
8607 8677 8679 1
8608 8677 8685 1
8609 8678 8680 1
8610 8678 8681 1
8611 8678 8682 1
8612 8682 8684 1
8613 8682 8683 1
8614 8685 8686 1
8615 8685 8687 1
8616 8685 8688 1
8617 8689 8698 1
8618 8689 8691 1
8619 8689 8690 1
8620 8690 8694 1
8621 8690 8693 1
8622 8690 8692 1
8623 8694 8695 1
8624 8694 8696 1
8625 8696 8697 1
8626 8698 8701 1
8627 8698 8699 1
8628 8698 8700 1
8629 8702 8704 1
8630 8702 8703 1
8631 8702 8721 1
8632 8702 8710 1
8633 8703 8705 1
8634 8703 8706 1
8635 8703 8707 1
8636 8707 8708 1
8637 8707 8709 1
8638 8710 8711 1
8639 8710 8712 1
8640 8710 8713 1
8641 8714 8716 1
8642 8714 8715 1
8643 8714 8722 1
8644 8714 8733 1
8645 8715 8719 1
8646 8715 8718 1
8647 8715 8717 1
8648 8719 8721 1
8649 8719 8720 1
8650 8722 8725 1
8651 8722 8723 1
8652 8722 8724 1
8653 8726 8727 1
8654 8726 8728 1
8655 8726 8745 1
8656 8726 8734 1
8657 8727 8729 1
8658 8727 8730 1
8659 8727 8731 1
8660 8731 8732 1
8661 8731 8733 1
8662 8734 8735 1
8663 8734 8736 1
8664 8734 8737 1
8665 8738 8739 1
8666 8738 8746 1
8667 8738 8740 1
8668 8738 8757 1
8669 8739 8742 1
8670 8739 8741 1
8671 8739 8743 1
8672 8743 8745 1
8673 8743 8744 1
8674 8746 8747 1
8675 8746 8748 1
8676 8746 8749 1
8677 8750 8752 1
8678 8750 8751 1
8679 8750 8758 1
8680 8750 8769 1
8681 8751 8753 1
8682 8751 8754 1
8683 8751 8755 1
8684 8755 8756 1
8685 8755 8757 1
8686 8758 8761 1
8687 8758 8759 1
8688 8758 8760 1
8689 8762 8770 1
8690 8762 8763 1
8691 8762 8764 1
8692 8762 8781 1
8693 8763 8765 1
8694 8763 8766 1
8695 8763 8767 1
8696 8767 8768 1
8697 8767 8769 1
8698 8770 8772 1
8699 8770 8771 1
8700 8770 8773 1
8701 8774 8782 1
8702 8774 8776 1
8703 8774 8775 1
8704 8774 8793 1
8705 8775 8778 1
8706 8775 8779 1
8707 8775 8777 1
8708 8779 8781 1
8709 8779 8780 1
8710 8782 8785 1
8711 8782 8783 1
8712 8782 8784 1
8713 8786 8788 1
8714 8786 8794 1
8715 8786 8787 1
8716 8786 8805 1
8717 8787 8789 1
8718 8787 8790 1
8719 8787 8791 1
8720 8791 8792 1
8721 8791 8793 1
8722 8794 8795 1
8723 8794 8796 1
8724 8794 8797 1
8725 8798 8806 1
8726 8798 8800 1
8727 8798 8799 1
8728 8798 8817 1
8729 8799 8802 1
8730 8799 8803 1
8731 8799 8801 1
8732 8803 8805 1
8733 8803 8804 1
8734 8806 8809 1
8735 8806 8807 1
8736 8806 8808 1
8737 8810 8818 1
8738 8810 8812 1
8739 8810 8811 1
8740 8810 8829 1
8741 8811 8813 1
8742 8811 8815 1
8743 8811 8814 1
8744 8815 8817 1
8745 8815 8816 1
8746 8818 8820 1
8747 8818 8819 1
8748 8818 8821 1
8749 8822 8823 1
8750 8822 8841 1
8751 8822 8824 1
8752 8822 8830 1
8753 8823 8826 1
8754 8823 8825 1
8755 8823 8827 1
8756 8827 8828 1
8757 8827 8829 1
8758 8830 8831 1
8759 8830 8832 1
8760 8830 8833 1
8761 8834 8836 1
8762 8834 8842 1
8763 8834 8853 1
8764 8834 8835 1
8765 8835 8838 1
8766 8835 8839 1
8767 8835 8837 1
8768 8839 8841 1
8769 8839 8840 1
8770 8842 8844 1
8771 8842 8843 1
8772 8842 8845 1
8773 8846 8847 1
8774 8846 8865 1
8775 8846 8848 1
8776 8846 8854 1
8777 8847 8849 1
8778 8847 8850 1
8779 8847 8851 1
8780 8851 8852 1
8781 8851 8853 1
8782 8854 8856 1
8783 8854 8855 1
8784 8854 8857 1
8785 8858 8860 1
8786 8858 8866 1
8787 8858 8877 1
8788 8858 8859 1
8789 8859 8862 1
8790 8859 8863 1
8791 8859 8861 1
8792 8863 8865 1
8793 8863 8864 1
8794 8866 8868 1
8795 8866 8867 1
8796 8866 8869 1
8797 8870 8871 1
8798 8870 8872 1
8799 8870 8889 1
8800 8870 8878 1
8801 8871 8873 1
8802 8871 8874 1
8803 8871 8875 1
8804 8875 8876 1
8805 8875 8877 1
8806 8878 8881 1
8807 8878 8879 1
8808 8878 8880 1
8809 8882 8884 1
8810 8882 8890 1
8811 8882 8901 1
8812 8882 8883 1
8813 8883 8885 1
8814 8883 8886 1
8815 8883 8887 1
8816 8887 8889 1
8817 8887 8888 1
8818 8890 8892 1
8819 8890 8893 1
8820 8890 8891 1
8821 8894 8896 1
8822 8894 8913 1
8823 8894 8895 1
8824 8894 8902 1
8825 8895 8898 1
8826 8895 8899 1
8827 8895 8897 1
8828 8899 8900 1
8829 8899 8901 1
8830 8902 8905 1
8831 8902 8903 1
8832 8902 8904 1
8833 8906 8907 1
8834 8906 8908 1
8835 8906 8925 1
8836 8906 8914 1
8837 8907 8909 1
8838 8907 8911 1
8839 8907 8910 1
8840 8911 8913 1
8841 8911 8912 1
8842 8914 8915 1
8843 8914 8917 1
8844 8914 8916 1
8845 8918 8920 1
8846 8918 8937 1
8847 8918 8919 1
8848 8918 8926 1
8849 8919 8922 1
8850 8919 8921 1
8851 8919 8923 1
8852 8923 8924 1
8853 8923 8925 1
8854 8926 8927 1
8855 8926 8928 1
8856 8926 8929 1
8857 8930 8932 1
8858 8930 8931 1
8859 8930 8949 1
8860 8930 8938 1
8861 8931 8933 1
8862 8931 8935 1
8863 8931 8934 1
8864 8935 8937 1
8865 8935 8936 1
8866 8938 8941 1
8867 8938 8939 1
8868 8938 8940 1
8869 8942 8950 1
8870 8942 8961 1
8871 8942 8944 1
8872 8942 8943 1
8873 8943 8945 1
8874 8943 8946 1
8875 8943 8947 1
8876 8947 8948 1
8877 8947 8949 1
8878 8950 8952 1
8879 8950 8953 1
8880 8950 8951 1
8881 8954 8956 1
8882 8954 8973 1
8883 8954 8962 1
8884 8954 8955 1
8885 8955 8957 1
8886 8955 8958 1
8887 8955 8959 1
8888 8959 8961 1
8889 8959 8960 1
8890 8962 8963 1
8891 8962 8964 1
8892 8962 8965 1
8893 8966 8968 1
8894 8966 8967 1
8895 8966 8974 1
8896 8966 8985 1
8897 8967 8969 1
8898 8967 8971 1
8899 8967 8970 1
8900 8971 8972 1
8901 8971 8973 1
8902 8974 8975 1
8903 8974 8976 1
8904 8974 8977 1
8905 8978 8980 1
8906 8978 8986 1
8907 8978 8997 1
8908 8978 8979 1
8909 8979 8982 1
8910 8979 8981 1
8911 8979 8983 1
8912 8983 8985 1
8913 8983 8984 1
8914 8986 8989 1
8915 8986 8988 1
8916 8986 8987 1
8917 8990 8992 1
8918 8990 8991 1
8919 8990 8998 1
8920 8990 9009 1
8921 8991 8995 1
8922 8991 8993 1
8923 8991 8994 1
8924 8995 8996 1
8925 8995 8997 1
8926 8998 8999 1
8927 8998 9000 1
8928 8998 9001 1
8929 9002 9010 1
8930 9002 9021 1
8931 9002 9003 1
8932 9002 9004 1
8933 9003 9006 1
8934 9003 9005 1
8935 9003 9007 1
8936 9007 9009 1
8937 9007 9008 1
8938 9010 9011 1
8939 9010 9013 1
8940 9010 9012 1
8941 9014 9016 1
8942 9014 9015 1
8943 9014 9022 1
8944 9014 9033 1
8945 9015 9019 1
8946 9015 9017 1
8947 9015 9018 1
8948 9019 9020 1
8949 9019 9021 1
8950 9022 9024 1
8951 9022 9023 1
8952 9022 9025 1
8953 9026 9034 1
8954 9026 9027 1
8955 9026 9028 1
8956 9027 9029 1
8957 9027 9030 1
8958 9027 9031 1
8959 9031 9032 1
8960 9031 9033 1
8961 9034 9036 1
8962 9034 9037 1
8963 9034 9035 1
8964 9038 9039 1
8965 9039 9040 1
8966 9039 9047 1
8967 9039 9041 1
8968 9040 9044 1
8969 9040 9042 1
8970 9040 9043 1
8971 9044 9045 1
8972 9044 9046 1
8973 9047 9050 1
8974 9047 9048 1
8975 9047 9049 1
8976 9051 9053 1
8977 9051 9052 1
8978 9051 9060 1
8979 9052 9055 1
8980 9052 9054 1
8981 9052 9056 1
8982 9056 9058 1
8983 9056 9057 1
8984 9058 9059 1
8985 9060 9063 1
8986 9060 9062 1
8987 9060 9061 1
8988 9064 9066 1
8989 9064 9065 1
8990 9064 9072 1
8991 9064 9083 1
8992 9065 9069 1
8993 9065 9068 1
8994 9065 9067 1
8995 9069 9070 1
8996 9069 9071 1
8997 9072 9075 1
8998 9072 9073 1
8999 9072 9074 1
9000 9076 9078 1
9001 9076 9077 1
9002 9076 9084 1
9003 9076 9095 1
9004 9077 9079 1
9005 9077 9080 1
9006 9077 9081 1
9007 9081 9083 1
9008 9081 9082 1
9009 9084 9086 1
9010 9084 9085 1
9011 9084 9087 1
9012 9088 9089 1
9013 9088 9090 1
9014 9088 9096 1
9015 9088 9107 1
9016 9089 9092 1
9017 9089 9093 1
9018 9089 9091 1
9019 9093 9094 1
9020 9093 9095 1
9021 9096 9097 1
9022 9096 9099 1
9023 9096 9098 1
9024 9100 9101 1
9025 9100 9102 1
9026 9100 9108 1
9027 9100 9119 1
9028 9101 9103 1
9029 9101 9104 1
9030 9101 9105 1
9031 9105 9107 1
9032 9105 9106 1
9033 9108 9109 1
9034 9108 9111 1
9035 9108 9110 1
9036 9112 9114 1
9037 9112 9113 1
9038 9112 9120 1
9039 9112 9131 1
9040 9113 9115 1
9041 9113 9116 1
9042 9113 9117 1
9043 9117 9118 1
9044 9117 9119 1
9045 9120 9122 1
9046 9120 9121 1
9047 9120 9123 1
9048 9124 9126 1
9049 9124 9132 1
9050 9124 9125 1
9051 9124 9143 1
9052 9125 9127 1
9053 9125 9128 1
9054 9125 9129 1
9055 9129 9131 1
9056 9129 9130 1
9057 9132 9135 1
9058 9132 9133 1
9059 9132 9134 1
9060 9136 9144 1
9061 9136 9138 1
9062 9136 9137 1
9063 9136 9155 1
9064 9137 9140 1
9065 9137 9139 1
9066 9137 9141 1
9067 9141 9142 1
9068 9141 9143 1
9069 9144 9145 1
9070 9144 9146 1
9071 9144 9147 1
9072 9148 9150 1
9073 9148 9156 1
9074 9148 9167 1
9075 9148 9149 1
9076 9149 9153 1
9077 9149 9152 1
9078 9149 9151 1
9079 9153 9155 1
9080 9153 9154 1
9081 9156 9157 1
9082 9156 9159 1
9083 9156 9158 1
9084 9160 9168 1
9085 9160 9162 1
9086 9160 9161 1
9087 9160 9179 1
9088 9161 9163 1
9089 9161 9164 1
9090 9161 9165 1
9091 9165 9166 1
9092 9165 9167 1
9093 9168 9170 1
9094 9168 9169 1
9095 9168 9171 1
9096 9172 9180 1
9097 9172 9174 1
9098 9172 9191 1
9099 9172 9173 1
9100 9173 9176 1
9101 9173 9177 1
9102 9173 9175 1
9103 9177 9179 1
9104 9177 9178 1
9105 9180 9183 1
9106 9180 9181 1
9107 9180 9182 1
9108 9184 9185 1
9109 9184 9186 1
9110 9184 9192 1
9111 9184 9203 1
9112 9185 9187 1
9113 9185 9188 1
9114 9185 9189 1
9115 9189 9191 1
9116 9189 9190 1
9117 9192 9194 1
9118 9192 9193 1
9119 9192 9195 1
9120 9196 9197 1
9121 9196 9215 1
9122 9196 9204 1
9123 9196 9198 1
9124 9197 9199 1
9125 9197 9200 1
9126 9197 9201 1
9127 9201 9202 1
9128 9201 9203 1
9129 9204 9205 1
9130 9204 9206 1
9131 9204 9207 1
9132 9208 9210 1
9133 9208 9216 1
9134 9208 9209 1
9135 9208 9227 1
9136 9209 9212 1
9137 9209 9213 1
9138 9209 9211 1
9139 9213 9215 1
9140 9213 9214 1
9141 9216 9218 1
9142 9216 9219 1
9143 9216 9217 1
9144 9220 9221 1
9145 9220 9222 1
9146 9220 9239 1
9147 9220 9228 1
9148 9221 9223 1
9149 9221 9225 1
9150 9221 9224 1
9151 9225 9226 1
9152 9225 9227 1
9153 9228 9229 1
9154 9228 9230 1
9155 9228 9231 1
9156 9232 9234 1
9157 9232 9240 1
9158 9232 9233 1
9159 9232 9251 1
9160 9233 9236 1
9161 9233 9235 1
9162 9233 9237 1
9163 9237 9239 1
9164 9237 9238 1
9165 9240 9243 1
9166 9240 9242 1
9167 9240 9241 1
9168 9244 9246 1
9169 9244 9245 1
9170 9244 9263 1
9171 9244 9252 1
9172 9245 9247 1
9173 9245 9249 1
9174 9245 9248 1
9175 9249 9250 1
9176 9249 9251 1
9177 9252 9253 1
9178 9252 9254 1
9179 9252 9255 1
9180 9256 9258 1
9181 9256 9257 1
9182 9256 9275 1
9183 9256 9264 1
9184 9257 9259 1
9185 9257 9261 1
9186 9257 9260 1
9187 9261 9263 1
9188 9261 9262 1
9189 9264 9267 1
9190 9264 9266 1
9191 9264 9265 1
9192 9268 9270 1
9193 9268 9287 1
9194 9268 9276 1
9195 9268 9269 1
9196 9269 9272 1
9197 9269 9271 1
9198 9269 9273 1
9199 9273 9274 1
9200 9273 9275 1
9201 9276 9277 1
9202 9276 9279 1
9203 9276 9278 1
9204 9280 9281 1
9205 9280 9282 1
9206 9280 9299 1
9207 9280 9288 1
9208 9281 9283 1
9209 9281 9285 1
9210 9281 9284 1
9211 9285 9287 1
9212 9285 9286 1
9213 9288 9289 1
9214 9288 9290 1
9215 9288 9291 1
9216 9292 9294 1
9217 9292 9300 1
9218 9292 9311 1
9219 9292 9293 1
9220 9293 9295 1
9221 9293 9296 1
9222 9293 9297 1
9223 9297 9298 1
9224 9297 9299 1
9225 9300 9303 1
9226 9300 9302 1
9227 9300 9301 1
9228 9304 9306 1
9229 9304 9323 1
9230 9304 9305 1
9231 9304 9312 1
9232 9305 9307 1
9233 9305 9308 1
9234 9305 9309 1
9235 9309 9311 1
9236 9309 9310 1
9237 9312 9314 1
9238 9312 9313 1
9239 9312 9315 1
9240 9316 9324 1
9241 9316 9335 1
9242 9316 9317 1
9243 9316 9318 1
9244 9317 9319 1
9245 9317 9321 1
9246 9317 9320 1
9247 9321 9322 1
9248 9321 9323 1
9249 9324 9326 1
9250 9324 9327 1
9251 9324 9325 1
9252 9328 9330 1
9253 9328 9347 1
9254 9328 9329 1
9255 9328 9336 1
9256 9329 9331 1
9257 9329 9332 1
9258 9329 9333 1
9259 9333 9335 1
9260 9333 9334 1
9261 9336 9337 1
9262 9336 9338 1
9263 9336 9339 1
9264 9340 9342 1
9265 9340 9341 1
9266 9340 9359 1
9267 9340 9348 1
9268 9341 9345 1
9269 9341 9343 1
9270 9341 9344 1
9271 9345 9346 1
9272 9345 9347 1
9273 9348 9350 1
9274 9348 9351 1
9275 9348 9349 1
9276 9352 9360 1
9277 9352 9371 1
9278 9352 9354 1
9279 9352 9353 1
9280 9353 9356 1
9281 9353 9355 1
9282 9353 9357 1
9283 9357 9359 1
9284 9357 9358 1
9285 9360 9363 1
9286 9360 9361 1
9287 9360 9362 1
9288 9364 9366 1
9289 9364 9365 1
9290 9364 9383 1
9291 9364 9372 1
9292 9365 9367 1
9293 9365 9369 1
9294 9365 9368 1
9295 9369 9370 1
9296 9369 9371 1
9297 9372 9373 1
9298 9372 9374 1
9299 9372 9375 1
9300 9376 9384 1
9301 9376 9395 1
9302 9376 9378 1
9303 9376 9377 1
9304 9377 9380 1
9305 9377 9379 1
9306 9377 9381 1
9307 9381 9383 1
9308 9381 9382 1
9309 9384 9386 1
9310 9384 9385 1
9311 9384 9387 1
9312 9388 9389 1
9313 9388 9390 1
9314 9388 9396 1
9315 9389 9393 1
9316 9389 9391 1
9317 9389 9392 1
9318 9393 9394 1
9319 9393 9395 1
9320 9396 9398 1
9321 9396 9397 1
9322 9396 9399 1
9323 9400 9401 1
9324 9401 9402 1
9325 9401 9403 1
9326 9401 9409 1
9327 9402 9404 1
9328 9402 9405 1
9329 9402 9406 1
9330 9406 9408 1
9331 9406 9407 1
9332 9409 9410 1
9333 9409 9411 1
9334 9409 9412 1
9335 9413 9422 1
9336 9413 9415 1
9337 9413 9414 1
9338 9414 9418 1
9339 9414 9417 1
9340 9414 9416 1
9341 9418 9419 1
9342 9418 9420 1
9343 9420 9421 1
9344 9422 9425 1
9345 9422 9423 1
9346 9422 9424 1
9347 9426 9445 1
9348 9426 9434 1
9349 9426 9428 1
9350 9426 9427 1
9351 9427 9429 1
9352 9427 9430 1
9353 9427 9431 1
9354 9431 9432 1
9355 9431 9433 1
9356 9434 9435 1
9357 9434 9436 1
9358 9434 9437 1
9359 9438 9457 1
9360 9438 9439 1
9361 9438 9446 1
9362 9438 9440 1
9363 9439 9443 1
9364 9439 9441 1
9365 9439 9442 1
9366 9443 9444 1
9367 9443 9445 1
9368 9446 9449 1
9369 9446 9447 1
9370 9446 9448 1
9371 9450 9469 1
9372 9450 9458 1
9373 9450 9451 1
9374 9450 9452 1
9375 9451 9453 1
9376 9451 9454 1
9377 9451 9455 1
9378 9455 9456 1
9379 9455 9457 1
9380 9458 9459 1
9381 9458 9460 1
9382 9458 9461 1
9383 9462 9463 1
9384 9462 9470 1
9385 9462 9464 1
9386 9462 9481 1
9387 9463 9467 1
9388 9463 9466 1
9389 9463 9465 1
9390 9467 9469 1
9391 9467 9468 1
9392 9470 9471 1
9393 9470 9472 1
9394 9470 9473 1
9395 9474 9476 1
9396 9474 9475 1
9397 9474 9482 1
9398 9474 9493 1
9399 9475 9477 1
9400 9475 9478 1
9401 9475 9479 1
9402 9479 9481 1
9403 9479 9480 1
9404 9482 9485 1
9405 9482 9483 1
9406 9482 9484 1
9407 9486 9494 1
9408 9486 9487 1
9409 9486 9488 1
9410 9486 9505 1
9411 9487 9490 1
9412 9487 9489 1
9413 9487 9491 1
9414 9491 9492 1
9415 9491 9493 1
9416 9494 9496 1
9417 9494 9495 1
9418 9494 9497 1
9419 9498 9517 1
9420 9498 9499 1
9421 9498 9506 1
9422 9498 9500 1
9423 9499 9502 1
9424 9499 9503 1
9425 9499 9501 1
9426 9503 9505 1
9427 9503 9504 1
9428 9506 9509 1
9429 9506 9507 1
9430 9506 9508 1
9431 9510 9518 1
9432 9510 9511 1
9433 9510 9512 1
9434 9510 9529 1
9435 9511 9513 1
9436 9511 9514 1
9437 9511 9515 1
9438 9515 9516 1
9439 9515 9517 1
9440 9518 9520 1
9441 9518 9519 1
9442 9518 9521 1
9443 9522 9541 1
9444 9522 9523 1
9445 9522 9524 1
9446 9522 9530 1
9447 9523 9526 1
9448 9523 9527 1
9449 9523 9525 1
9450 9527 9529 1
9451 9527 9528 1
9452 9530 9533 1
9453 9530 9531 1
9454 9530 9532 1
9455 9534 9542 1
9456 9534 9536 1
9457 9534 9535 1
9458 9534 9553 1
9459 9535 9537 1
9460 9535 9538 1
9461 9535 9539 1
9462 9539 9541 1
9463 9539 9540 1
9464 9542 9544 1
9465 9542 9543 1
9466 9542 9545 1
9467 9546 9547 1
9468 9546 9565 1
9469 9546 9548 1
9470 9546 9554 1
9471 9547 9550 1
9472 9547 9549 1
9473 9547 9551 1
9474 9551 9552 1
9475 9551 9553 1
9476 9554 9555 1
9477 9554 9557 1
9478 9554 9556 1
9479 9558 9560 1
9480 9558 9559 1
9481 9558 9566 1
9482 9558 9577 1
9483 9559 9561 1
9484 9559 9563 1
9485 9559 9562 1
9486 9563 9565 1
9487 9563 9564 1
9488 9566 9568 1
9489 9566 9567 1
9490 9566 9569 1
9491 9570 9572 1
9492 9570 9571 1
9493 9570 9589 1
9494 9570 9578 1
9495 9571 9573 1
9496 9571 9574 1
9497 9571 9575 1
9498 9575 9576 1
9499 9575 9577 1
9500 9578 9580 1
9501 9578 9579 1
9502 9578 9581 1
9503 9582 9584 1
9504 9582 9590 1
9505 9582 9601 1
9506 9582 9583 1
9507 9583 9586 1
9508 9583 9587 1
9509 9583 9585 1
9510 9587 9589 1
9511 9587 9588 1
9512 9590 9592 1
9513 9590 9591 1
9514 9590 9593 1
9515 9594 9595 1
9516 9594 9596 1
9517 9594 9613 1
9518 9594 9602 1
9519 9595 9597 1
9520 9595 9598 1
9521 9595 9599 1
9522 9599 9600 1
9523 9599 9601 1
9524 9602 9605 1
9525 9602 9603 1
9526 9602 9604 1
9527 9606 9608 1
9528 9606 9614 1
9529 9606 9625 1
9530 9606 9607 1
9531 9607 9609 1
9532 9607 9610 1
9533 9607 9611 1
9534 9611 9613 1
9535 9611 9612 1
9536 9614 9616 1
9537 9614 9615 1
9538 9614 9617 1
9539 9618 9620 1
9540 9618 9637 1
9541 9618 9619 1
9542 9618 9626 1
9543 9619 9621 1
9544 9619 9622 1
9545 9619 9623 1
9546 9623 9624 1
9547 9623 9625 1
9548 9626 9629 1
9549 9626 9627 1
9550 9626 9628 1
9551 9630 9631 1
9552 9630 9632 1
9553 9630 9649 1
9554 9630 9638 1
9555 9631 9633 1
9556 9631 9635 1
9557 9631 9634 1
9558 9635 9637 1
9559 9635 9636 1
9560 9638 9641 1
9561 9638 9640 1
9562 9638 9639 1
9563 9642 9644 1
9564 9642 9650 1
9565 9642 9661 1
9566 9642 9643 1
9567 9643 9646 1
9568 9643 9645 1
9569 9643 9647 1
9570 9647 9648 1
9571 9647 9649 1
9572 9650 9652 1
9573 9650 9653 1
9574 9650 9651 1
9575 9654 9656 1
9576 9654 9655 1
9577 9654 9673 1
9578 9654 9662 1
9579 9655 9657 1
9580 9655 9659 1
9581 9655 9658 1
9582 9659 9661 1
9583 9659 9660 1
9584 9662 9665 1
9585 9662 9663 1
9586 9662 9664 1
9587 9666 9668 1
9588 9666 9667 1
9589 9666 9674 1
9590 9666 9685 1
9591 9667 9669 1
9592 9667 9671 1
9593 9667 9670 1
9594 9671 9672 1
9595 9671 9673 1
9596 9674 9676 1
9597 9674 9677 1
9598 9674 9675 1
9599 9678 9679 1
9600 9678 9680 1
9601 9678 9697 1
9602 9678 9686 1
9603 9679 9683 1
9604 9679 9682 1
9605 9679 9681 1
9606 9683 9685 1
9607 9683 9684 1
9608 9686 9687 1
9609 9686 9688 1
9610 9686 9689 1
9611 9690 9692 1
9612 9690 9691 1
9613 9690 9698 1
9614 9690 9709 1
9615 9691 9693 1
9616 9691 9695 1
9617 9691 9694 1
9618 9695 9696 1
9619 9695 9697 1
9620 9698 9699 1
9621 9698 9700 1
9622 9698 9701 1
9623 9702 9704 1
9624 9702 9721 1
9625 9702 9710 1
9626 9702 9703 1
9627 9703 9706 1
9628 9703 9705 1
9629 9703 9707 1
9630 9707 9709 1
9631 9707 9708 1
9632 9710 9712 1
9633 9710 9711 1
9634 9710 9713 1
9635 9714 9716 1
9636 9714 9715 1
9637 9714 9733 1
9638 9714 9722 1
9639 9715 9719 1
9640 9715 9717 1
9641 9715 9718 1
9642 9719 9720 1
9643 9719 9721 1
9644 9722 9723 1
9645 9722 9724 1
9646 9722 9725 1
9647 9726 9734 1
9648 9726 9745 1
9649 9726 9727 1
9650 9726 9728 1
9651 9727 9730 1
9652 9727 9729 1
9653 9727 9731 1
9654 9731 9732 1
9655 9731 9733 1
9656 9734 9737 1
9657 9734 9735 1
9658 9734 9736 1
9659 9738 9740 1
9660 9738 9746 1
9661 9738 9757 1
9662 9738 9739 1
9663 9739 9743 1
9664 9739 9741 1
9665 9739 9742 1
9666 9743 9744 1
9667 9743 9745 1
9668 9746 9749 1
9669 9746 9747 1
9670 9746 9748 1
9671 9750 9758 1
9672 9750 9751 1
9673 9750 9752 1
9674 9751 9753 1
9675 9751 9754 1
9676 9751 9755 1
9677 9755 9756 1
9678 9755 9757 1
9679 9758 9760 1
9680 9758 9761 1
9681 9758 9759 1
9682 9762 9763 1
9683 9763 9764 1
9684 9763 9771 1
9685 9763 9765 1
9686 9764 9768 1
9687 9764 9766 1
9688 9764 9767 1
9689 9768 9769 1
9690 9768 9770 1
9691 9771 9772 1
9692 9771 9774 1
9693 9771 9773 1
9694 9775 9777 1
9695 9775 9776 1
9696 9775 9784 1
9697 9776 9779 1
9698 9776 9778 1
9699 9776 9780 1
9700 9780 9782 1
9701 9780 9781 1
9702 9782 9783 1
9703 9784 9786 1
9704 9784 9785 1
9705 9784 9787 1
9706 9788 9790 1
9707 9788 9789 1
9708 9788 9796 1
9709 9788 9807 1
9710 9789 9791 1
9711 9789 9792 1
9712 9789 9793 1
9713 9793 9794 1
9714 9793 9795 1
9715 9796 9799 1
9716 9796 9797 1
9717 9796 9798 1
9718 9800 9802 1
9719 9800 9801 1
9720 9800 9808 1
9721 9800 9819 1
9722 9801 9803 1
9723 9801 9804 1
9724 9801 9805 1
9725 9805 9807 1
9726 9805 9806 1
9727 9808 9810 1
9728 9808 9809 1
9729 9808 9811 1
9730 9812 9813 1
9731 9812 9814 1
9732 9812 9820 1
9733 9812 9831 1
9734 9813 9815 1
9735 9813 9816 1
9736 9813 9817 1
9737 9817 9818 1
9738 9817 9819 1
9739 9820 9821 1
9740 9820 9823 1
9741 9820 9822 1
9742 9824 9825 1
9743 9824 9826 1
9744 9824 9832 1
9745 9824 9843 1
9746 9825 9827 1
9747 9825 9828 1
9748 9825 9829 1
9749 9829 9831 1
9750 9829 9830 1
9751 9832 9833 1
9752 9832 9835 1
9753 9832 9834 1
9754 9836 9838 1
9755 9836 9837 1
9756 9836 9844 1
9757 9836 9855 1
9758 9837 9839 1
9759 9837 9840 1
9760 9837 9841 1
9761 9841 9842 1
9762 9841 9843 1
9763 9844 9846 1
9764 9844 9847 1
9765 9844 9845 1
9766 9848 9850 1
9767 9848 9856 1
9768 9848 9849 1
9769 9848 9867 1
9770 9849 9851 1
9771 9849 9852 1
9772 9849 9853 1
9773 9853 9854 1
9774 9853 9855 1
9775 9856 9859 1
9776 9856 9857 1
9777 9856 9858 1
9778 9860 9868 1
9779 9860 9862 1
9780 9860 9861 1
9781 9860 9879 1
9782 9861 9864 1
9783 9861 9863 1
9784 9861 9865 1
9785 9865 9866 1
9786 9865 9867 1
9787 9868 9869 1
9788 9868 9870 1
9789 9868 9871 1
9790 9872 9874 1
9791 9872 9880 1
9792 9872 9873 1
9793 9872 9891 1
9794 9873 9875 1
9795 9873 9877 1
9796 9873 9876 1
9797 9877 9879 1
9798 9877 9878 1
9799 9880 9881 1
9800 9880 9882 1
9801 9880 9883 1
9802 9884 9892 1
9803 9884 9886 1
9804 9884 9885 1
9805 9884 9903 1
9806 9885 9887 1
9807 9885 9888 1
9808 9885 9889 1
9809 9889 9891 1
9810 9889 9890 1
9811 9892 9894 1
9812 9892 9893 1
9813 9892 9895 1
9814 9896 9904 1
9815 9896 9898 1
9816 9896 9915 1
9817 9896 9897 1
9818 9897 9900 1
9819 9897 9901 1
9820 9897 9899 1
9821 9901 9903 1
9822 9901 9902 1
9823 9904 9907 1
9824 9904 9905 1
9825 9904 9906 1
9826 9908 9910 1
9827 9908 9916 1
9828 9908 9909 1
9829 9908 9927 1
9830 9909 9912 1
9831 9909 9913 1
9832 9909 9911 1
9833 9913 9915 1
9834 9913 9914 1
9835 9916 9917 1
9836 9916 9918 1
9837 9916 9919 1
9838 9920 9921 1
9839 9920 9939 1
9840 9920 9928 1
9841 9920 9922 1
9842 9921 9923 1
9843 9921 9924 1
9844 9921 9925 1
9845 9925 9927 1
9846 9925 9926 1
9847 9928 9929 1
9848 9928 9930 1
9849 9928 9931 1
9850 9932 9934 1
9851 9932 9940 1
9852 9932 9933 1
9853 9932 9951 1
9854 9933 9936 1
9855 9933 9937 1
9856 9933 9935 1
9857 9937 9939 1
9858 9937 9938 1
9859 9940 9942 1
9860 9940 9943 1
9861 9940 9941 1
9862 9944 9945 1
9863 9944 9963 1
9864 9944 9952 1
9865 9944 9946 1
9866 9945 9947 1
9867 9945 9949 1
9868 9945 9948 1
9869 9949 9950 1
9870 9949 9951 1
9871 9952 9953 1
9872 9952 9954 1
9873 9952 9955 1
9874 9956 9957 1
9875 9956 9975 1
9876 9956 9958 1
9877 9956 9964 1
9878 9957 9960 1
9879 9957 9959 1
9880 9957 9961 1
9881 9961 9963 1
9882 9961 9962 1
9883 9964 9967 1
9884 9964 9966 1
9885 9964 9965 1
9886 9968 9970 1
9887 9968 9969 1
9888 9968 9987 1
9889 9968 9976 1
9890 9969 9971 1
9891 9969 9973 1
9892 9969 9972 1
9893 9973 9974 1
9894 9973 9975 1
9895 9976 9977 1
9896 9976 9978 1
9897 9976 9979 1
9898 9980 9982 1
9899 9980 9981 1
9900 9980 9999 1
9901 9980 9988 1
9902 9981 9983 1
9903 9981 9985 1
9904 9981 9984 1
9905 9985 9987 1
9906 9985 9986 1
9907 9988 9991 1
9908 9988 9989 1
9909 9988 9990 1
9910 9992 9994 1
9911 9992 10011 1
9912 9992 10000 1
9913 9992 9993 1
9914 9993 9996 1
9915 9993 9997 1
9916 9993 9995 1
9917 9997 9998 1
9918 9997 9999 1
9919 10000 10001 1
9920 10000 10003 1
9921 10000 10002 1
9922 10004 10005 1
9923 10004 10006 1
9924 10004 10023 1
9925 10004 10012 1
9926 10005 10007 1
9927 10005 10009 1
9928 10005 10008 1
9929 10009 10011 1
9930 10009 10010 1
9931 10012 10013 1
9932 10012 10014 1
9933 10012 10015 1
9934 10016 10018 1
9935 10016 10035 1
9936 10016 10024 1
9937 10016 10017 1
9938 10017 10019 1
9939 10017 10020 1
9940 10017 10021 1
9941 10021 10022 1
9942 10021 10023 1
9943 10024 10027 1
9944 10024 10025 1
9945 10024 10026 1
9946 10028 10030 1
9947 10028 10047 1
9948 10028 10029 1
9949 10028 10036 1
9950 10029 10031 1
9951 10029 10032 1
9952 10029 10033 1
9953 10033 10035 1
9954 10033 10034 1
9955 10036 10038 1
9956 10036 10037 1
9957 10036 10039 1
9958 10040 10048 1
9959 10040 10059 1
9960 10040 10041 1
9961 10040 10042 1
9962 10041 10043 1
9963 10041 10044 1
9964 10041 10045 1
9965 10045 10046 1
9966 10045 10047 1
9967 10048 10051 1
9968 10048 10049 1
9969 10048 10050 1
9970 10052 10054 1
9971 10052 10060 1
9972 10052 10071 1
9973 10052 10053 1
9974 10053 10055 1
9975 10053 10056 1
9976 10053 10057 1
9977 10057 10059 1
9978 10057 10058 1
9979 10060 10063 1
9980 10060 10061 1
9981 10060 10062 1
9982 10064 10066 1
9983 10064 10065 1
9984 10064 10083 1
9985 10064 10072 1
9986 10065 10069 1
9987 10065 10067 1
9988 10065 10068 1
9989 10069 10070 1
9990 10069 10071 1
9991 10072 10074 1
9992 10072 10075 1
9993 10072 10073 1
9994 10076 10084 1
9995 10076 10095 1
9996 10076 10078 1
9997 10076 10077 1
9998 10077 10080 1
9999 10077 10079 1
10000 10077 10081 1
10001 10081 10083 1
10002 10081 10082 1
10003 10084 10086 1
10004 10084 10087 1
10005 10084 10085 1
10006 10088 10090 1
10007 10088 10089 1
10008 10088 10107 1
10009 10088 10096 1
10010 10089 10091 1
10011 10089 10093 1
10012 10089 10092 1
10013 10093 10094 1
10014 10093 10095 1
10015 10096 10097 1
10016 10096 10098 1
10017 10096 10099 1
10018 10100 10102 1
10019 10100 10101 1
10020 10100 10108 1
10021 10100 10119 1
10022 10101 10104 1
10023 10101 10103 1
10024 10101 10105 1
10025 10105 10107 1
10026 10105 10106 1
10027 10108 10110 1
10028 10108 10109 1
10029 10108 10111 1
10030 10112 10113 1
10031 10112 10114 1
10032 10112 10120 1
10033 10113 10115 1
10034 10113 10116 1
10035 10113 10117 1
10036 10117 10118 1
10037 10117 10119 1
10038 10120 10122 1
10039 10120 10121 1
10040 10120 10123 1
10041 10124 10125 1
10042 10125 10126 1
10043 10125 10127 1
10044 10125 10133 1
10045 10126 10128 1
10046 10126 10129 1
10047 10126 10130 1
10048 10130 10132 1
10049 10130 10131 1
10050 10133 10134 1
10051 10133 10135 1
10052 10133 10136 1
10053 10137 10146 1
10054 10137 10138 1
10055 10137 10139 1
10056 10138 10142 1
10057 10138 10141 1
10058 10138 10140 1
10059 10142 10143 1
10060 10142 10144 1
10061 10144 10145 1
10062 10146 10149 1
10063 10146 10147 1
10064 10146 10148 1
10065 10150 10169 1
10066 10150 10158 1
10067 10150 10152 1
10068 10150 10151 1
10069 10151 10153 1
10070 10151 10154 1
10071 10151 10155 1
10072 10155 10156 1
10073 10155 10157 1
10074 10158 10159 1
10075 10158 10160 1
10076 10158 10161 1
10077 10162 10181 1
10078 10162 10163 1
10079 10162 10170 1
10080 10162 10164 1
10081 10163 10167 1
10082 10163 10165 1
10083 10163 10166 1
10084 10167 10168 1
10085 10167 10169 1
10086 10170 10172 1
10087 10170 10173 1
10088 10170 10171 1
10089 10174 10193 1
10090 10174 10182 1
10091 10174 10175 1
10092 10174 10176 1
10093 10175 10177 1
10094 10175 10178 1
10095 10175 10179 1
10096 10179 10180 1
10097 10179 10181 1
10098 10182 10183 1
10099 10182 10184 1
10100 10182 10185 1
10101 10186 10187 1
10102 10186 10205 1
10103 10186 10194 1
10104 10186 10188 1
10105 10187 10191 1
10106 10187 10190 1
10107 10187 10189 1
10108 10191 10193 1
10109 10191 10192 1
10110 10194 10195 1
10111 10194 10196 1
10112 10194 10197 1
10113 10198 10217 1
10114 10198 10199 1
10115 10198 10206 1
10116 10198 10200 1
10117 10199 10203 1
10118 10199 10202 1
10119 10199 10201 1
10120 10203 10204 1
10121 10203 10205 1
10122 10206 10208 1
10123 10206 10207 1
10124 10206 10209 1
10125 10210 10229 1
10126 10210 10218 1
10127 10210 10211 1
10128 10210 10212 1
10129 10211 10214 1
10130 10211 10213 1
10131 10211 10215 1
10132 10215 10216 1
10133 10215 10217 1
10134 10218 10220 1
10135 10218 10219 1
10136 10218 10221 1
10137 10222 10241 1
10138 10222 10223 1
10139 10222 10230 1
10140 10222 10224 1
10141 10223 10226 1
10142 10223 10227 1
10143 10223 10225 1
10144 10227 10228 1
10145 10227 10229 1
10146 10230 10233 1
10147 10230 10231 1
10148 10230 10232 1
10149 10234 10253 1
10150 10234 10242 1
10151 10234 10235 1
10152 10234 10236 1
10153 10235 10237 1
10154 10235 10238 1
10155 10235 10239 1
10156 10239 10240 1
10157 10239 10241 1
10158 10242 10244 1
10159 10242 10243 1
10160 10242 10245 1
10161 10246 10265 1
10162 10246 10247 1
10163 10246 10248 1
10164 10246 10254 1
10165 10247 10250 1
10166 10247 10251 1
10167 10247 10249 1
10168 10251 10252 1
10169 10251 10253 1
10170 10254 10257 1
10171 10254 10255 1
10172 10254 10256 1
10173 10258 10260 1
10174 10258 10259 1
10175 10258 10266 1
10176 10258 10277 1
10177 10259 10261 1
10178 10259 10262 1
10179 10259 10263 1
10180 10263 10265 1
10181 10263 10264 1
10182 10266 10269 1
10183 10266 10267 1
10184 10266 10268 1
10185 10270 10271 1
10186 10270 10289 1
10187 10270 10272 1
10188 10270 10278 1
10189 10271 10274 1
10190 10271 10273 1
10191 10271 10275 1
10192 10275 10276 1
10193 10275 10277 1
10194 10278 10279 1
10195 10278 10281 1
10196 10278 10280 1
10197 10282 10284 1
10198 10282 10283 1
10199 10282 10290 1
10200 10282 10301 1
10201 10283 10285 1
10202 10283 10287 1
10203 10283 10286 1
10204 10287 10289 1
10205 10287 10288 1
10206 10290 10291 1
10207 10290 10293 1
10208 10290 10292 1
10209 10294 10296 1
10210 10294 10295 1
10211 10294 10313 1
10212 10294 10302 1
10213 10295 10297 1
10214 10295 10298 1
10215 10295 10299 1
10216 10299 10300 1
10217 10299 10301 1
10218 10302 10303 1
10219 10302 10305 1
10220 10302 10304 1
10221 10306 10308 1
10222 10306 10314 1
10223 10306 10325 1
10224 10306 10307 1
10225 10307 10310 1
10226 10307 10311 1
10227 10307 10309 1
10228 10311 10313 1
10229 10311 10312 1
10230 10314 10315 1
10231 10314 10317 1
10232 10314 10316 1
10233 10318 10320 1
10234 10318 10337 1
10235 10318 10319 1
10236 10318 10326 1
10237 10319 10322 1
10238 10319 10323 1
10239 10319 10321 1
10240 10323 10324 1
10241 10323 10325 1
10242 10326 10329 1
10243 10326 10327 1
10244 10326 10328 1
10245 10330 10332 1
10246 10330 10338 1
10247 10330 10349 1
10248 10330 10331 1
10249 10331 10333 1
10250 10331 10334 1
10251 10331 10335 1
10252 10335 10337 1
10253 10335 10336 1
10254 10338 10340 1
10255 10338 10339 1
10256 10338 10341 1
10257 10342 10344 1
10258 10342 10361 1
10259 10342 10343 1
10260 10342 10350 1
10261 10343 10345 1
10262 10343 10346 1
10263 10343 10347 1
10264 10347 10348 1
10265 10347 10349 1
10266 10350 10353 1
10267 10350 10351 1
10268 10350 10352 1
10269 10354 10362 1
10270 10354 10356 1
10271 10354 10373 1
10272 10354 10355 1
10273 10355 10357 1
10274 10355 10359 1
10275 10355 10358 1
10276 10359 10361 1
10277 10359 10360 1
10278 10362 10365 1
10279 10362 10364 1
10280 10362 10363 1
10281 10366 10368 1
10282 10366 10374 1
10283 10366 10367 1
10284 10366 10385 1
10285 10367 10370 1
10286 10367 10369 1
10287 10367 10371 1
10288 10371 10372 1
10289 10371 10373 1
10290 10374 10376 1
10291 10374 10377 1
10292 10374 10375 1
10293 10378 10380 1
10294 10378 10379 1
10295 10378 10397 1
10296 10378 10386 1
10297 10379 10381 1
10298 10379 10383 1
10299 10379 10382 1
10300 10383 10385 1
10301 10383 10384 1
10302 10386 10389 1
10303 10386 10387 1
10304 10386 10388 1
10305 10390 10392 1
10306 10390 10391 1
10307 10390 10409 1
10308 10390 10398 1
10309 10391 10393 1
10310 10391 10395 1
10311 10391 10394 1
10312 10395 10396 1
10313 10395 10397 1
10314 10398 10400 1
10315 10398 10401 1
10316 10398 10399 1
10317 10402 10403 1
10318 10402 10404 1
10319 10402 10421 1
10320 10402 10410 1
10321 10403 10405 1
10322 10403 10407 1
10323 10403 10406 1
10324 10407 10409 1
10325 10407 10408 1
10326 10410 10411 1
10327 10410 10412 1
10328 10410 10413 1
10329 10414 10416 1
10330 10414 10415 1
10331 10414 10433 1
10332 10414 10422 1
10333 10415 10417 1
10334 10415 10419 1
10335 10415 10418 1
10336 10419 10420 1
10337 10419 10421 1
10338 10422 10423 1
10339 10422 10424 1
10340 10422 10425 1
10341 10426 10428 1
10342 10426 10445 1
10343 10426 10434 1
10344 10426 10427 1
10345 10427 10430 1
10346 10427 10429 1
10347 10427 10431 1
10348 10431 10432 1
10349 10431 10433 1
10350 10434 10436 1
10351 10434 10435 1
10352 10434 10437 1
10353 10438 10440 1
10354 10438 10439 1
10355 10438 10457 1
10356 10438 10446 1
10357 10439 10443 1
10358 10439 10441 1
10359 10439 10442 1
10360 10443 10444 1
10361 10443 10445 1
10362 10446 10447 1
10363 10446 10448 1
10364 10446 10449 1
10365 10450 10458 1
10366 10450 10469 1
10367 10450 10451 1
10368 10450 10452 1
10369 10451 10454 1
10370 10451 10453 1
10371 10451 10455 1
10372 10455 10456 1
10373 10455 10457 1
10374 10458 10461 1
10375 10458 10459 1
10376 10458 10460 1
10377 10462 10464 1
10378 10462 10470 1
10379 10462 10481 1
10380 10462 10463 1
10381 10463 10467 1
10382 10463 10465 1
10383 10463 10466 1
10384 10467 10468 1
10385 10467 10469 1
10386 10470 10473 1
10387 10470 10471 1
10388 10470 10472 1
10389 10474 10482 1
10390 10474 10475 1
10391 10474 10476 1
10392 10475 10477 1
10393 10475 10478 1
10394 10475 10479 1
10395 10479 10480 1
10396 10479 10481 1
10397 10482 10485 1
10398 10482 10483 1
10399 10482 10484 1
10400 10486 10487 1
10401 10487 10488 1
10402 10487 10495 1
10403 10487 10489 1
10404 10488 10492 1
10405 10488 10490 1
10406 10488 10491 1
10407 10492 10493 1
10408 10492 10494 1
10409 10495 10496 1
10410 10495 10498 1
10411 10495 10497 1
10412 10499 10501 1
10413 10499 10500 1
10414 10499 10508 1
10415 10500 10503 1
10416 10500 10502 1
10417 10500 10504 1
10418 10504 10506 1
10419 10504 10505 1
10420 10506 10507 1
10421 10508 10510 1
10422 10508 10509 1
10423 10508 10511 1
10424 10512 10514 1
10425 10512 10513 1
10426 10512 10531 1
10427 10512 10520 1
10428 10513 10515 1
10429 10513 10516 1
10430 10513 10517 1
10431 10517 10518 1
10432 10517 10519 1
10433 10520 10521 1
10434 10520 10522 1
10435 10520 10523 1
10436 10524 10526 1
10437 10524 10525 1
10438 10524 10532 1
10439 10524 10543 1
10440 10525 10527 1
10441 10525 10528 1
10442 10525 10529 1
10443 10529 10531 1
10444 10529 10530 1
10445 10532 10535 1
10446 10532 10534 1
10447 10532 10533 1
10448 10536 10537 1
10449 10536 10538 1
10450 10536 10544 1
10451 10536 10555 1
10452 10537 10539 1
10453 10537 10540 1
10454 10537 10541 1
10455 10541 10542 1
10456 10541 10543 1
10457 10544 10545 1
10458 10544 10547 1
10459 10544 10546 1
10460 10548 10549 1
10461 10548 10550 1
10462 10548 10556 1
10463 10548 10567 1
10464 10549 10551 1
10465 10549 10552 1
10466 10549 10553 1
10467 10553 10555 1
10468 10553 10554 1
10469 10556 10557 1
10470 10556 10559 1
10471 10556 10558 1
10472 10560 10562 1
10473 10560 10561 1
10474 10560 10568 1
10475 10560 10579 1
10476 10561 10563 1
10477 10561 10564 1
10478 10561 10565 1
10479 10565 10566 1
10480 10565 10567 1
10481 10568 10571 1
10482 10568 10569 1
10483 10568 10570 1
10484 10572 10574 1
10485 10572 10580 1
10486 10572 10573 1
10487 10572 10591 1
10488 10573 10575 1
10489 10573 10576 1
10490 10573 10577 1
10491 10577 10578 1
10492 10577 10579 1
10493 10580 10582 1
10494 10580 10583 1
10495 10580 10581 1
10496 10584 10592 1
10497 10584 10586 1
10498 10584 10585 1
10499 10584 10603 1
10500 10585 10588 1
10501 10585 10587 1
10502 10585 10589 1
10503 10589 10590 1
10504 10589 10591 1
10505 10592 10595 1
10506 10592 10593 1
10507 10592 10594 1
10508 10596 10598 1
10509 10596 10604 1
10510 10596 10597 1
10511 10596 10615 1
10512 10597 10599 1
10513 10597 10600 1
10514 10597 10601 1
10515 10601 10603 1
10516 10601 10602 1
10517 10604 10605 1
10518 10604 10606 1
10519 10604 10607 1
10520 10608 10616 1
10521 10608 10610 1
10522 10608 10609 1
10523 10608 10627 1
10524 10609 10611 1
10525 10609 10612 1
10526 10609 10613 1
10527 10613 10615 1
10528 10613 10614 1
10529 10616 10618 1
10530 10616 10617 1
10531 10616 10619 1
10532 10620 10628 1
10533 10620 10622 1
10534 10620 10639 1
10535 10620 10621 1
10536 10621 10624 1
10537 10621 10625 1
10538 10621 10623 1
10539 10625 10627 1
10540 10625 10626 1
10541 10628 10629 1
10542 10628 10630 1
10543 10628 10631 1
10544 10632 10634 1
10545 10632 10640 1
10546 10632 10633 1
10547 10632 10651 1
10548 10633 10636 1
10549 10633 10637 1
10550 10633 10635 1
10551 10637 10639 1
10552 10637 10638 1
10553 10640 10641 1
10554 10640 10642 1
10555 10640 10643 1
10556 10644 10646 1
10557 10644 10652 1
10558 10644 10663 1
10559 10644 10645 1
10560 10645 10648 1
10561 10645 10649 1
10562 10645 10647 1
10563 10649 10651 1
10564 10649 10650 1
10565 10652 10653 1
10566 10652 10654 1
10567 10652 10655 1
10568 10656 10658 1
10569 10656 10664 1
10570 10656 10657 1
10571 10656 10675 1
10572 10657 10659 1
10573 10657 10660 1
10574 10657 10661 1
10575 10661 10663 1
10576 10661 10662 1
10577 10664 10666 1
10578 10664 10665 1
10579 10664 10667 1
10580 10668 10669 1
10581 10668 10687 1
10582 10668 10676 1
10583 10668 10670 1
10584 10669 10671 1
10585 10669 10672 1
10586 10669 10673 1
10587 10673 10675 1
10588 10673 10674 1
10589 10676 10677 1
10590 10676 10678 1
10591 10676 10679 1
10592 10680 10681 1
10593 10680 10699 1
10594 10680 10682 1
10595 10680 10688 1
10596 10681 10683 1
10597 10681 10685 1
10598 10681 10684 1
10599 10685 10687 1
10600 10685 10686 1
10601 10688 10691 1
10602 10688 10689 1
10603 10688 10690 1
10604 10692 10694 1
10605 10692 10693 1
10606 10692 10711 1
10607 10692 10700 1
10608 10693 10695 1
10609 10693 10697 1
10610 10693 10696 1
10611 10697 10698 1
10612 10697 10699 1
10613 10700 10701 1
10614 10700 10702 1
10615 10700 10703 1
10616 10704 10706 1
10617 10704 10705 1
10618 10704 10723 1
10619 10704 10712 1
10620 10705 10707 1
10621 10705 10708 1
10622 10705 10709 1
10623 10709 10710 1
10624 10709 10711 1
10625 10712 10715 1
10626 10712 10713 1
10627 10712 10714 1
10628 10716 10718 1
10629 10716 10735 1
10630 10716 10724 1
10631 10716 10717 1
10632 10717 10720 1
10633 10717 10721 1
10634 10717 10719 1
10635 10721 10722 1
10636 10721 10723 1
10637 10724 10725 1
10638 10724 10727 1
10639 10724 10726 1
10640 10728 10730 1
10641 10728 10747 1
10642 10728 10729 1
10643 10728 10736 1
10644 10729 10732 1
10645 10729 10733 1
10646 10729 10731 1
10647 10733 10734 1
10648 10733 10735 1
10649 10736 10737 1
10650 10736 10738 1
10651 10736 10739 1
10652 10740 10742 1
10653 10740 10759 1
10654 10740 10748 1
10655 10740 10741 1
10656 10741 10743 1
10657 10741 10744 1
10658 10741 10745 1
10659 10745 10746 1
10660 10745 10747 1
10661 10748 10751 1
10662 10748 10749 1
10663 10748 10750 1
10664 10752 10754 1
10665 10752 10771 1
10666 10752 10753 1
10667 10752 10760 1
10668 10753 10755 1
10669 10753 10756 1
10670 10753 10757 1
10671 10757 10758 1
10672 10757 10759 1
10673 10760 10762 1
10674 10760 10761 1
10675 10760 10763 1
10676 10764 10772 1
10677 10764 10766 1
10678 10764 10783 1
10679 10764 10765 1
10680 10765 10767 1
10681 10765 10768 1
10682 10765 10769 1
10683 10769 10770 1
10684 10769 10771 1
10685 10772 10775 1
10686 10772 10773 1
10687 10772 10774 1
10688 10776 10784 1
10689 10776 10795 1
10690 10776 10778 1
10691 10776 10777 1
10692 10777 10779 1
10693 10777 10781 1
10694 10777 10780 1
10695 10781 10782 1
10696 10781 10783 1
10697 10784 10787 1
10698 10784 10785 1
10699 10784 10786 1
10700 10788 10796 1
10701 10788 10807 1
10702 10788 10789 1
10703 10788 10790 1
10704 10789 10792 1
10705 10789 10793 1
10706 10789 10791 1
10707 10793 10794 1
10708 10793 10795 1
10709 10796 10798 1
10710 10796 10799 1
10711 10796 10797 1
10712 10800 10802 1
10713 10800 10801 1
10714 10800 10808 1
10715 10800 10819 1
10716 10801 10804 1
10717 10801 10805 1
10718 10801 10803 1
10719 10805 10806 1
10720 10805 10807 1
10721 10808 10809 1
10722 10808 10810 1
10723 10808 10811 1
10724 10812 10814 1
10725 10812 10813 1
10726 10812 10831 1
10727 10812 10820 1
10728 10813 10816 1
10729 10813 10815 1
10730 10813 10817 1
10731 10817 10818 1
10732 10817 10819 1
10733 10820 10821 1
10734 10820 10822 1
10735 10820 10823 1
10736 10824 10826 1
10737 10824 10825 1
10738 10824 10832 1
10739 10824 10843 1
10740 10825 10828 1
10741 10825 10827 1
10742 10825 10829 1
10743 10829 10831 1
10744 10829 10830 1
10745 10832 10834 1
10746 10832 10833 1
10747 10832 10835 1
10748 10836 10837 1
10749 10836 10838 1
10750 10836 10844 1
10751 10837 10839 1
10752 10837 10840 1
10753 10837 10841 1
10754 10841 10842 1
10755 10841 10843 1
10756 10844 10846 1
10757 10844 10845 1
10758 10844 10847 1
10759 10848 10849 1
10760 10849 10850 1
10761 10849 10851 1
10762 10849 10857 1
10763 10850 10852 1
10764 10850 10853 1
10765 10850 10854 1
10766 10854 10856 1
10767 10854 10855 1
10768 10857 10858 1
10769 10857 10859 1
10770 10857 10860 1
10771 10861 10870 1
10772 10861 10863 1
10773 10861 10862 1
10774 10862 10865 1
10775 10862 10864 1
10776 10862 10866 1
10777 10866 10867 1
10778 10866 10868 1
10779 10868 10869 1
10780 10870 10873 1
10781 10870 10871 1
10782 10870 10872 1
10783 10874 10893 1
10784 10874 10882 1
10785 10874 10876 1
10786 10874 10875 1
10787 10875 10877 1
10788 10875 10878 1
10789 10875 10879 1
10790 10879 10880 1
10791 10879 10881 1
10792 10882 10883 1
10793 10882 10884 1
10794 10882 10885 1
10795 10886 10905 1
10796 10886 10894 1
10797 10886 10888 1
10798 10886 10887 1
10799 10887 10889 1
10800 10887 10890 1
10801 10887 10891 1
10802 10891 10892 1
10803 10891 10893 1
10804 10894 10896 1
10805 10894 10895 1
10806 10894 10897 1
10807 10898 10899 1
10808 10898 10917 1
10809 10898 10906 1
10810 10898 10900 1
10811 10899 10903 1
10812 10899 10902 1
10813 10899 10901 1
10814 10903 10904 1
10815 10903 10905 1
10816 10906 10907 1
10817 10906 10908 1
10818 10906 10909 1
10819 10910 10911 1
10820 10910 10929 1
10821 10910 10918 1
10822 10910 10912 1
10823 10911 10915 1
10824 10911 10913 1
10825 10911 10914 1
10826 10915 10917 1
10827 10915 10916 1
10828 10918 10919 1
10829 10918 10920 1
10830 10918 10921 1
10831 10922 10941 1
10832 10922 10923 1
10833 10922 10930 1
10834 10922 10924 1
10835 10923 10927 1
10836 10923 10926 1
10837 10923 10925 1
10838 10927 10928 1
10839 10927 10929 1
10840 10930 10932 1
10841 10930 10931 1
10842 10930 10933 1
10843 10934 10953 1
10844 10934 10942 1
10845 10934 10935 1
10846 10934 10936 1
10847 10935 10938 1
10848 10935 10939 1
10849 10935 10937 1
10850 10939 10941 1
10851 10939 10940 1
10852 10942 10944 1
10853 10942 10945 1
10854 10942 10943 1
10855 10946 10954 1
10856 10946 10965 1
10857 10946 10947 1
10858 10946 10948 1
10859 10947 10950 1
10860 10947 10951 1
10861 10947 10949 1
10862 10951 10952 1
10863 10951 10953 1
10864 10954 10956 1
10865 10954 10957 1
10866 10954 10955 1
10867 10958 10977 1
10868 10958 10959 1
10869 10958 10966 1
10870 10958 10960 1
10871 10959 10962 1
10872 10959 10961 1
10873 10959 10963 1
10874 10963 10964 1
10875 10963 10965 1
10876 10966 10967 1
10877 10966 10969 1
10878 10966 10968 1
10879 10970 10989 1
10880 10970 10971 1
10881 10970 10972 1
10882 10970 10978 1
10883 10971 10973 1
10884 10971 10974 1
10885 10971 10975 1
10886 10975 10976 1
10887 10975 10977 1
10888 10978 10981 1
10889 10978 10979 1
10890 10978 10980 1
10891 10982 11001 1
10892 10982 10983 1
10893 10982 10990 1
10894 10982 10984 1
10895 10983 10985 1
10896 10983 10986 1
10897 10983 10987 1
10898 10987 10989 1
10899 10987 10988 1
10900 10990 10993 1
10901 10990 10991 1
10902 10990 10992 1
10903 10994 10995 1
10904 10994 10996 1
10905 10994 11013 1
10906 10994 11002 1
10907 10995 10998 1
10908 10995 10997 1
10909 10995 10999 1
10910 10999 11000 1
10911 10999 11001 1
10912 11002 11003 1
10913 11002 11005 1
10914 11002 11004 1
10915 11006 11008 1
10916 11006 11007 1
10917 11006 11025 1
10918 11006 11014 1
10919 11007 11009 1
10920 11007 11011 1
10921 11007 11010 1
10922 11011 11013 1
10923 11011 11012 1
10924 11014 11015 1
10925 11014 11017 1
10926 11014 11016 1
10927 11018 11020 1
10928 11018 11019 1
10929 11018 11037 1
10930 11018 11026 1
10931 11019 11021 1
10932 11019 11022 1
10933 11019 11023 1
10934 11023 11025 1
10935 11023 11024 1
10936 11026 11027 1
10937 11026 11029 1
10938 11026 11028 1
10939 11030 11032 1
10940 11030 11049 1
10941 11030 11038 1
10942 11030 11031 1
10943 11031 11034 1
10944 11031 11035 1
10945 11031 11033 1
10946 11035 11037 1
10947 11035 11036 1
10948 11038 11039 1
10949 11038 11041 1
10950 11038 11040 1
10951 11042 11044 1
10952 11042 11043 1
10953 11042 11061 1
10954 11042 11050 1
10955 11043 11046 1
10956 11043 11047 1
10957 11043 11045 1
10958 11047 11049 1
10959 11047 11048 1
10960 11050 11053 1
10961 11050 11051 1
10962 11050 11052 1
10963 11054 11056 1
10964 11054 11062 1
10965 11054 11073 1
10966 11054 11055 1
10967 11055 11057 1
10968 11055 11058 1
10969 11055 11059 1
10970 11059 11061 1
10971 11059 11060 1
10972 11062 11063 1
10973 11062 11065 1
10974 11062 11064 1
10975 11066 11068 1
10976 11066 11074 1
10977 11066 11067 1
10978 11066 11085 1
10979 11067 11069 1
10980 11067 11070 1
10981 11067 11071 1
10982 11071 11072 1
10983 11071 11073 1
10984 11074 11076 1
10985 11074 11077 1
10986 11074 11075 1
10987 11078 11086 1
10988 11078 11080 1
10989 11078 11097 1
10990 11078 11079 1
10991 11079 11082 1
10992 11079 11081 1
10993 11079 11083 1
10994 11083 11085 1
10995 11083 11084 1
10996 11086 11089 1
10997 11086 11088 1
10998 11086 11087 1
10999 11090 11091 1
11000 11090 11092 1
11001 11090 11109 1
11002 11090 11098 1
11003 11091 11093 1
11004 11091 11095 1
11005 11091 11094 1
11006 11095 11096 1
11007 11095 11097 1
11008 11098 11100 1
11009 11098 11101 1
11010 11098 11099 1
11011 11102 11104 1
11012 11102 11103 1
11013 11102 11121 1
11014 11102 11110 1
11015 11103 11105 1
11016 11103 11107 1
11017 11103 11106 1
11018 11107 11109 1
11019 11107 11108 1
11020 11110 11113 1
11021 11110 11112 1
11022 11110 11111 1
11023 11114 11116 1
11024 11114 11115 1
11025 11114 11133 1
11026 11114 11122 1
11027 11115 11117 1
11028 11115 11119 1
11029 11115 11118 1
11030 11119 11120 1
11031 11119 11121 1
11032 11122 11124 1
11033 11122 11123 1
11034 11122 11125 1
11035 11126 11127 1
11036 11126 11128 1
11037 11126 11145 1
11038 11126 11134 1
11039 11127 11129 1
11040 11127 11131 1
11041 11127 11130 1
11042 11131 11133 1
11043 11131 11132 1
11044 11134 11135 1
11045 11134 11136 1
11046 11134 11137 1
11047 11138 11140 1
11048 11138 11139 1
11049 11138 11157 1
11050 11138 11146 1
11051 11139 11143 1
11052 11139 11141 1
11053 11139 11142 1
11054 11143 11144 1
11055 11143 11145 1
11056 11146 11147 1
11057 11146 11148 1
11058 11146 11149 1
11059 11150 11152 1
11060 11150 11169 1
11061 11150 11151 1
11062 11150 11158 1
11063 11151 11155 1
11064 11151 11154 1
11065 11151 11153 1
11066 11155 11156 1
11067 11155 11157 1
11068 11158 11160 1
11069 11158 11161 1
11070 11158 11159 1
11071 11162 11164 1
11072 11162 11181 1
11073 11162 11163 1
11074 11162 11170 1
11075 11163 11166 1
11076 11163 11165 1
11077 11163 11167 1
11078 11167 11168 1
11079 11167 11169 1
11080 11170 11171 1
11081 11170 11172 1
11082 11170 11173 1
11083 11174 11182 1
11084 11174 11176 1
11085 11174 11193 1
11086 11174 11175 1
11087 11175 11178 1
11088 11175 11177 1
11089 11175 11179 1
11090 11179 11180 1
11091 11179 11181 1
11092 11182 11185 1
11093 11182 11183 1
11094 11182 11184 1
11095 11186 11194 1
11096 11186 11205 1
11097 11186 11188 1
11098 11186 11187 1
11099 11187 11190 1
11100 11187 11189 1
11101 11187 11191 1
11102 11191 11192 1
11103 11191 11193 1
11104 11194 11197 1
11105 11194 11195 1
11106 11194 11196 1
11107 11198 11206 1
11108 11198 11199 1
11109 11198 11200 1
11110 11199 11201 1
11111 11199 11202 1
11112 11199 11203 1
11113 11203 11204 1
11114 11203 11205 1
11115 11206 11209 1
11116 11206 11207 1
11117 11206 11208 1
11118 11210 11211 1
11119 11211 11219 1
11120 11211 11213 1
11121 11211 11212 1
11122 11212 11214 1
11123 11212 11215 1
11124 11212 11216 1
11125 11216 11217 1
11126 11216 11218 1
11127 11219 11220 1
11128 11219 11221 1
11129 11219 11222 1
11130 11223 11225 1
11131 11223 11224 1
11132 11223 11232 1
11133 11224 11227 1
11134 11224 11226 1
11135 11224 11228 1
11136 11228 11230 1
11137 11228 11229 1
11138 11230 11231 1
11139 11232 11234 1
11140 11232 11233 1
11141 11232 11235 1
11142 11236 11238 1
11143 11236 11237 1
11144 11236 11255 1
11145 11236 11244 1
11146 11237 11239 1
11147 11237 11240 1
11148 11237 11241 1
11149 11241 11242 1
11150 11241 11243 1
11151 11244 11245 1
11152 11244 11246 1
11153 11244 11247 1
11154 11248 11250 1
11155 11248 11249 1
11156 11248 11256 1
11157 11248 11267 1
11158 11249 11251 1
11159 11249 11252 1
11160 11249 11253 1
11161 11253 11255 1
11162 11253 11254 1
11163 11256 11259 1
11164 11256 11257 1
11165 11256 11258 1
11166 11260 11261 1
11167 11260 11262 1
11168 11260 11268 1
11169 11260 11279 1
11170 11261 11263 1
11171 11261 11264 1
11172 11261 11265 1
11173 11265 11266 1
11174 11265 11267 1
11175 11268 11269 1
11176 11268 11271 1
11177 11268 11270 1
11178 11272 11273 1
11179 11272 11274 1
11180 11272 11280 1
11181 11272 11291 1
11182 11273 11275 1
11183 11273 11276 1
11184 11273 11277 1
11185 11277 11279 1
11186 11277 11278 1
11187 11280 11281 1
11188 11280 11283 1
11189 11280 11282 1
11190 11284 11286 1
11191 11284 11285 1
11192 11284 11292 1
11193 11284 11303 1
11194 11285 11287 1
11195 11285 11288 1
11196 11285 11289 1
11197 11289 11290 1
11198 11289 11291 1
11199 11292 11295 1
11200 11292 11293 1
11201 11292 11294 1
11202 11296 11298 1
11203 11296 11304 1
11204 11296 11297 1
11205 11296 11315 1
11206 11297 11299 1
11207 11297 11300 1
11208 11297 11301 1
11209 11301 11302 1
11210 11301 11303 1
11211 11304 11306 1
11212 11304 11307 1
11213 11304 11305 1
11214 11308 11316 1
11215 11308 11310 1
11216 11308 11309 1
11217 11308 11327 1
11218 11309 11312 1
11219 11309 11311 1
11220 11309 11313 1
11221 11313 11315 1
11222 11313 11314 1
11223 11316 11319 1
11224 11316 11317 1
11225 11316 11318 1
11226 11320 11322 1
11227 11320 11328 1
11228 11320 11321 1
11229 11320 11339 1
11230 11321 11323 1
11231 11321 11324 1
11232 11321 11325 1
11233 11325 11327 1
11234 11325 11326 1
11235 11328 11329 1
11236 11328 11330 1
11237 11328 11331 1
11238 11332 11340 1
11239 11332 11334 1
11240 11332 11333 1
11241 11332 11351 1
11242 11333 11336 1
11243 11333 11337 1
11244 11333 11335 1
11245 11337 11339 1
11246 11337 11338 1
11247 11340 11342 1
11248 11340 11343 1
11249 11340 11341 1
11250 11344 11352 1
11251 11344 11346 1
11252 11344 11363 1
11253 11344 11345 1
11254 11345 11348 1
11255 11345 11349 1
11256 11345 11347 1
11257 11349 11351 1
11258 11349 11350 1
11259 11352 11353 1
11260 11352 11354 1
11261 11352 11355 1
11262 11356 11358 1
11263 11356 11364 1
11264 11356 11357 1
11265 11356 11375 1
11266 11357 11360 1
11267 11357 11361 1
11268 11357 11359 1
11269 11361 11363 1
11270 11361 11362 1
11271 11364 11365 1
11272 11364 11366 1
11273 11364 11367 1
11274 11368 11370 1
11275 11368 11376 1
11276 11368 11387 1
11277 11368 11369 1
11278 11369 11372 1
11279 11369 11373 1
11280 11369 11371 1
11281 11373 11375 1
11282 11373 11374 1
11283 11376 11377 1
11284 11376 11378 1
11285 11376 11379 1
11286 11380 11381 1
11287 11380 11399 1
11288 11380 11382 1
11289 11380 11388 1
11290 11381 11383 1
11291 11381 11384 1
11292 11381 11385 1
11293 11385 11387 1
11294 11385 11386 1
11295 11388 11390 1
11296 11388 11389 1
11297 11388 11391 1
11298 11392 11394 1
11299 11392 11400 1
11300 11392 11411 1
11301 11392 11393 1
11302 11393 11395 1
11303 11393 11396 1
11304 11393 11397 1
11305 11397 11399 1
11306 11397 11398 1
11307 11400 11401 1
11308 11400 11402 1
11309 11400 11403 1
11310 11404 11405 1
11311 11404 11406 1
11312 11404 11423 1
11313 11404 11412 1
11314 11405 11407 1
11315 11405 11408 1
11316 11405 11409 1
11317 11409 11410 1
11318 11409 11411 1
11319 11412 11415 1
11320 11412 11413 1
11321 11412 11414 1
11322 11416 11418 1
11323 11416 11417 1
11324 11416 11435 1
11325 11416 11424 1
11326 11417 11419 1
11327 11417 11421 1
11328 11417 11420 1
11329 11421 11423 1
11330 11421 11422 1
11331 11424 11425 1
11332 11424 11426 1
11333 11424 11427 1
11334 11428 11430 1
11335 11428 11429 1
11336 11428 11447 1
11337 11428 11436 1
11338 11429 11431 1
11339 11429 11432 1
11340 11429 11433 1
11341 11433 11434 1
11342 11433 11435 1
11343 11436 11439 1
11344 11436 11437 1
11345 11436 11438 1
11346 11440 11441 1
11347 11440 11442 1
11348 11440 11459 1
11349 11440 11448 1
11350 11441 11443 1
11351 11441 11445 1
11352 11441 11444 1
11353 11445 11447 1
11354 11445 11446 1
11355 11448 11449 1
11356 11448 11451 1
11357 11448 11450 1
11358 11452 11454 1
11359 11452 11471 1
11360 11452 11453 1
11361 11452 11460 1
11362 11453 11456 1
11363 11453 11455 1
11364 11453 11457 1
11365 11457 11458 1
11366 11457 11459 1
11367 11460 11461 1
11368 11460 11462 1
11369 11460 11463 1
11370 11464 11466 1
11371 11464 11483 1
11372 11464 11472 1
11373 11464 11465 1
11374 11465 11467 1
11375 11465 11468 1
11376 11465 11469 1
11377 11469 11470 1
11378 11469 11471 1
11379 11472 11475 1
11380 11472 11473 1
11381 11472 11474 1
11382 11476 11478 1
11383 11476 11484 1
11384 11476 11495 1
11385 11476 11477 1
11386 11477 11479 1
11387 11477 11480 1
11388 11477 11481 1
11389 11481 11482 1
11390 11481 11483 1
11391 11484 11487 1
11392 11484 11486 1
11393 11484 11485 1
11394 11488 11490 1
11395 11488 11507 1
11396 11488 11496 1
11397 11488 11489 1
11398 11489 11491 1
11399 11489 11492 1
11400 11489 11493 1
11401 11493 11494 1
11402 11493 11495 1
11403 11496 11497 1
11404 11496 11498 1
11405 11496 11499 1
11406 11500 11508 1
11407 11500 11519 1
11408 11500 11502 1
11409 11500 11501 1
11410 11501 11503 1
11411 11501 11505 1
11412 11501 11504 1
11413 11505 11506 1
11414 11505 11507 1
11415 11508 11510 1
11416 11508 11511 1
11417 11508 11509 1
11418 11512 11520 1
11419 11512 11531 1
11420 11512 11513 1
11421 11512 11514 1
11422 11513 11516 1
11423 11513 11515 1
11424 11513 11517 1
11425 11517 11519 1
11426 11517 11518 1
11427 11520 11523 1
11428 11520 11522 1
11429 11520 11521 1
11430 11524 11526 1
11431 11524 11525 1
11432 11524 11532 1
11433 11524 11543 1
11434 11525 11528 1
11435 11525 11529 1
11436 11525 11527 1
11437 11529 11530 1
11438 11529 11531 1
11439 11532 11533 1
11440 11532 11534 1
11441 11532 11535 1
11442 11536 11538 1
11443 11536 11537 1
11444 11536 11555 1
11445 11536 11544 1
11446 11537 11540 1
11447 11537 11539 1
11448 11537 11541 1
11449 11541 11543 1
11450 11541 11542 1
11451 11544 11545 1
11452 11544 11546 1
11453 11544 11547 1
11454 11548 11550 1
11455 11548 11549 1
11456 11548 11556 1
11457 11548 11567 1
11458 11549 11553 1
11459 11549 11552 1
11460 11549 11551 1
11461 11553 11554 1
11462 11553 11555 1
11463 11556 11558 1
11464 11556 11557 1
11465 11556 11559 1
11466 11560 11561 1
11467 11560 11562 1
11468 11560 11568 1
11469 11561 11563 1
11470 11561 11564 1
11471 11561 11565 1
11472 11565 11566 1
11473 11565 11567 1
11474 11568 11570 1
11475 11568 11569 1
11476 11568 11571 1
11477 11572 11573 1
11478 11573 11574 1
11479 11573 11575 1
11480 11573 11581 1
11481 11574 11576 1
11482 11574 11577 1
11483 11574 11578 1
11484 11578 11580 1
11485 11578 11579 1
11486 11581 11582 1
11487 11581 11583 1
11488 11581 11584 1
11489 11585 11587 1
11490 11585 11594 1
11491 11585 11586 1
11492 11586 11590 1
11493 11586 11588 1
11494 11586 11589 1
11495 11590 11591 1
11496 11590 11592 1
11497 11592 11593 1
11498 11594 11597 1
11499 11594 11595 1
11500 11594 11596 1
11501 11598 11600 1
11502 11598 11599 1
11503 11598 11617 1
11504 11598 11606 1
11505 11599 11602 1
11506 11599 11601 1
11507 11599 11603 1
11508 11603 11605 1
11509 11603 11604 1
11510 11606 11607 1
11511 11606 11608 1
11512 11606 11609 1
11513 11610 11612 1
11514 11610 11618 1
11515 11610 11611 1
11516 11610 11629 1
11517 11611 11614 1
11518 11611 11615 1
11519 11611 11613 1
11520 11615 11617 1
11521 11615 11616 1
11522 11618 11621 1
11523 11618 11619 1
11524 11618 11620 1
11525 11622 11624 1
11526 11622 11623 1
11527 11622 11641 1
11528 11622 11630 1
11529 11623 11626 1
11530 11623 11625 1
11531 11623 11627 1
11532 11627 11628 1
11533 11627 11629 1
11534 11630 11632 1
11535 11630 11631 1
11536 11630 11633 1
11537 11634 11642 1
11538 11634 11635 1
11539 11634 11636 1
11540 11634 11653 1
11541 11635 11638 1
11542 11635 11637 1
11543 11635 11639 1
11544 11639 11641 1
11545 11639 11640 1
11546 11642 11644 1
11547 11642 11645 1
11548 11642 11643 1
11549 11646 11648 1
11550 11646 11647 1
11551 11646 11654 1
11552 11646 11665 1
11553 11647 11649 1
11554 11647 11650 1
11555 11647 11651 1
11556 11651 11652 1
11557 11651 11653 1
11558 11654 11657 1
11559 11654 11655 1
11560 11654 11656 1
11561 11658 11659 1
11562 11658 11666 1
11563 11658 11660 1
11564 11658 11677 1
11565 11659 11661 1
11566 11659 11662 1
11567 11659 11663 1
11568 11663 11665 1
11569 11663 11664 1
11570 11666 11668 1
11571 11666 11667 1
11572 11666 11669 1
11573 11670 11672 1
11574 11670 11678 1
11575 11670 11671 1
11576 11670 11689 1
11577 11671 11675 1
11578 11671 11674 1
11579 11671 11673 1
11580 11675 11677 1
11581 11675 11676 1
11582 11678 11679 1
11583 11678 11681 1
11584 11678 11680 1
11585 11682 11684 1
11586 11682 11683 1
11587 11682 11690 1
11588 11682 11701 1
11589 11683 11685 1
11590 11683 11686 1
11591 11683 11687 1
11592 11687 11688 1
11593 11687 11689 1
11594 11690 11691 1
11595 11690 11692 1
11596 11690 11693 1
11597 11694 11696 1
11598 11694 11702 1
11599 11694 11713 1
11600 11694 11695 1
11601 11695 11699 1
11602 11695 11698 1
11603 11695 11697 1
11604 11699 11701 1
11605 11699 11700 1
11606 11702 11705 1
11607 11702 11703 1
11608 11702 11704 1
11609 11706 11708 1
11610 11706 11707 1
11611 11706 11714 1
11612 11706 11725 1
11613 11707 11709 1
11614 11707 11711 1
11615 11707 11710 1
11616 11711 11713 1
11617 11711 11712 1
11618 11714 11716 1
11619 11714 11715 1
11620 11714 11717 1
11621 11718 11737 1
11622 11718 11719 1
11623 11718 11720 1
11624 11718 11726 1
11625 11719 11722 1
11626 11719 11721 1
11627 11719 11723 1
11628 11723 11724 1
11629 11723 11725 1
11630 11726 11727 1
11631 11726 11728 1
11632 11726 11729 1
11633 11730 11732 1
11634 11730 11738 1
11635 11730 11749 1
11636 11730 11731 1
11637 11731 11735 1
11638 11731 11734 1
11639 11731 11733 1
11640 11735 11737 1
11641 11735 11736 1
11642 11738 11740 1
11643 11738 11739 1
11644 11738 11741 1
11645 11742 11761 1
11646 11742 11743 1
11647 11742 11744 1
11648 11742 11750 1
11649 11743 11745 1
11650 11743 11746 1
11651 11743 11747 1
11652 11747 11748 1
11653 11747 11749 1
11654 11750 11753 1
11655 11750 11752 1
11656 11750 11751 1
11657 11754 11762 1
11658 11754 11756 1
11659 11754 11773 1
11660 11754 11755 1
11661 11755 11758 1
11662 11755 11759 1
11663 11755 11757 1
11664 11759 11761 1
11665 11759 11760 1
11666 11762 11764 1
11667 11762 11763 1
11668 11762 11765 1
11669 11766 11785 1
11670 11766 11767 1
11671 11766 11768 1
11672 11766 11774 1
11673 11767 11769 1
11674 11767 11770 1
11675 11767 11771 1
11676 11771 11772 1
11677 11771 11773 1
11678 11774 11775 1
11679 11774 11776 1
11680 11774 11777 1
11681 11778 11786 1
11682 11778 11780 1
11683 11778 11797 1
11684 11778 11779 1
11685 11779 11783 1
11686 11779 11781 1
11687 11779 11782 1
11688 11783 11785 1
11689 11783 11784 1
11690 11786 11788 1
11691 11786 11789 1
11692 11786 11787 1
11693 11790 11809 1
11694 11790 11792 1
11695 11790 11791 1
11696 11790 11798 1
11697 11791 11794 1
11698 11791 11795 1
11699 11791 11793 1
11700 11795 11796 1
11701 11795 11797 1
11702 11798 11800 1
11703 11798 11799 1
11704 11798 11801 1
11705 11802 11803 1
11706 11802 11821 1
11707 11802 11804 1
11708 11802 11810 1
11709 11803 11807 1
11710 11803 11805 1
11711 11803 11806 1
11712 11807 11809 1
11713 11807 11808 1
11714 11810 11811 1
11715 11810 11812 1
11716 11810 11813 1
11717 11814 11833 1
11718 11814 11816 1
11719 11814 11815 1
11720 11814 11822 1
11721 11815 11818 1
11722 11815 11819 1
11723 11815 11817 1
11724 11819 11820 1
11725 11819 11821 1
11726 11822 11823 1
11727 11822 11824 1
11728 11822 11825 1
11729 11826 11845 1
11730 11826 11827 1
11731 11826 11828 1
11732 11826 11834 1
11733 11827 11831 1
11734 11827 11829 1
11735 11827 11830 1
11736 11831 11833 1
11737 11831 11832 1
11738 11834 11836 1
11739 11834 11835 1
11740 11834 11837 1
11741 11838 11857 1
11742 11838 11846 1
11743 11838 11840 1
11744 11838 11839 1
11745 11839 11842 1
11746 11839 11843 1
11747 11839 11841 1
11748 11843 11844 1
11749 11843 11845 1
11750 11846 11849 1
11751 11846 11848 1
11752 11846 11847 1
11753 11850 11869 1
11754 11850 11852 1
11755 11850 11858 1
11756 11850 11851 1
11757 11851 11854 1
11758 11851 11853 1
11759 11851 11855 1
11760 11855 11857 1
11761 11855 11856 1
11762 11858 11859 1
11763 11858 11861 1
11764 11858 11860 1
11765 11862 11863 1
11766 11862 11864 1
11767 11862 11870 1
11768 11862 11881 1
11769 11863 11865 1
11770 11863 11867 1
11771 11863 11866 1
11772 11867 11868 1
11773 11867 11869 1
11774 11870 11871 1
11775 11870 11873 1
11776 11870 11872 1
11777 11874 11893 1
11778 11874 11876 1
11779 11874 11882 1
11780 11874 11875 1
11781 11875 11877 1
11782 11875 11878 1
11783 11875 11879 1
11784 11879 11881 1
11785 11879 11880 1
11786 11882 11885 1
11787 11882 11884 1
11788 11882 11883 1
11789 11886 11887 1
11790 11886 11888 1
11791 11886 11894 1
11792 11886 11905 1
11793 11887 11889 1
11794 11887 11891 1
11795 11887 11890 1
11796 11891 11892 1
11797 11891 11893 1
11798 11894 11895 1
11799 11894 11897 1
11800 11894 11896 1
11801 11898 11917 1
11802 11898 11906 1
11803 11898 11899 1
11804 11898 11900 1
11805 11899 11901 1
11806 11899 11902 1
11807 11899 11903 1
11808 11903 11905 1
11809 11903 11904 1
11810 11906 11907 1
11811 11906 11909 1
11812 11906 11908 1
11813 11910 11912 1
11814 11910 11911 1
11815 11910 11918 1
11816 11910 11929 1
11817 11911 11915 1
11818 11911 11913 1
11819 11911 11914 1
11820 11915 11916 1
11821 11915 11917 1
11822 11918 11919 1
11823 11918 11920 1
11824 11918 11921 1
11825 11922 11930 1
11826 11922 11923 1
11827 11922 11924 1
11828 11923 11926 1
11829 11923 11925 1
11830 11923 11927 1
11831 11927 11929 1
11832 11927 11928 1
11833 11930 11933 1
11834 11930 11931 1
11835 11930 11932 1
11836 11934 11935 1
11837 11935 11937 1
11838 11935 11943 1
11839 11935 11936 1
11840 11936 11940 1
11841 11936 11938 1
11842 11936 11939 1
11843 11940 11941 1
11844 11940 11942 1
11845 11943 11946 1
11846 11943 11944 1
11847 11943 11945 1
11848 11947 11949 1
11849 11947 11948 1
11850 11947 11956 1
11851 11948 11951 1
11852 11948 11950 1
11853 11948 11952 1
11854 11952 11954 1
11855 11952 11953 1
11856 11954 11955 1
11857 11956 11957 1
11858 11956 11959 1
11859 11956 11958 1
11860 11960 11962 1
11861 11960 11961 1
11862 11960 11968 1
11863 11960 11979 1
11864 11961 11965 1
11865 11961 11964 1
11866 11961 11963 1
11867 11965 11966 1
11868 11965 11967 1
11869 11968 11971 1
11870 11968 11970 1
11871 11968 11969 1
11872 11972 11974 1
11873 11972 11973 1
11874 11972 11980 1
11875 11972 11991 1
11876 11973 11975 1
11877 11973 11976 1
11878 11973 11977 1
11879 11977 11979 1
11880 11977 11978 1
11881 11980 11981 1
11882 11980 11982 1
11883 11980 11983 1
11884 11984 11992 1
11885 11984 11986 1
11886 11984 11985 1
11887 11984 12003 1
11888 11985 11988 1
11889 11985 11989 1
11890 11985 11987 1
11891 11989 11990 1
11892 11989 11991 1
11893 11992 11993 1
11894 11992 11995 1
11895 11992 11994 1
11896 11996 11998 1
11897 11996 12004 1
11898 11996 11997 1
11899 11996 12015 1
11900 11997 12000 1
11901 11997 11999 1
11902 11997 12001 1
11903 12001 12003 1
11904 12001 12002 1
11905 12004 12007 1
11906 12004 12005 1
11907 12004 12006 1
11908 12008 12010 1
11909 12008 12009 1
11910 12008 12016 1
11911 12008 12027 1
11912 12009 12011 1
11913 12009 12012 1
11914 12009 12013 1
11915 12013 12014 1
11916 12013 12015 1
11917 12016 12018 1
11918 12016 12017 1
11919 12016 12019 1
11920 12020 12022 1
11921 12020 12021 1
11922 12020 12028 1
11923 12020 12039 1
11924 12021 12023 1
11925 12021 12024 1
11926 12021 12025 1
11927 12025 12027 1
11928 12025 12026 1
11929 12028 12031 1
11930 12028 12029 1
11931 12028 12030 1
11932 12032 12033 1
11933 12032 12034 1
11934 12032 12040 1
11935 12032 12051 1
11936 12033 12035 1
11937 12033 12036 1
11938 12033 12037 1
11939 12037 12038 1
11940 12037 12039 1
11941 12040 12041 1
11942 12040 12042 1
11943 12040 12043 1
11944 12044 12046 1
11945 12044 12052 1
11946 12044 12063 1
11947 12044 12045 1
11948 12045 12049 1
11949 12045 12048 1
11950 12045 12047 1
11951 12049 12051 1
11952 12049 12050 1
11953 12052 12053 1
11954 12052 12055 1
11955 12052 12054 1
11956 12056 12058 1
11957 12056 12057 1
11958 12056 12064 1
11959 12056 12075 1
11960 12057 12059 1
11961 12057 12060 1
11962 12057 12061 1
11963 12061 12062 1
11964 12061 12063 1
11965 12064 12066 1
11966 12064 12065 1
11967 12064 12067 1
11968 12068 12070 1
11969 12068 12076 1
11970 12068 12087 1
11971 12068 12069 1
11972 12069 12073 1
11973 12069 12072 1
11974 12069 12071 1
11975 12073 12075 1
11976 12073 12074 1
11977 12076 12077 1
11978 12076 12078 1
11979 12076 12079 1
11980 12080 12082 1
11981 12080 12081 1
11982 12080 12088 1
11983 12080 12099 1
11984 12081 12083 1
11985 12081 12084 1
11986 12081 12085 1
11987 12085 12087 1
11988 12085 12086 1
11989 12088 12090 1
11990 12088 12091 1
11991 12088 12089 1
11992 12092 12111 1
11993 12092 12093 1
11994 12092 12094 1
11995 12092 12100 1
11996 12093 12095 1
11997 12093 12096 1
11998 12093 12097 1
11999 12097 12098 1
12000 12097 12099 1
12001 12100 12103 1
12002 12100 12101 1
12003 12100 12102 1
12004 12104 12112 1
12005 12104 12106 1
12006 12104 12105 1
12007 12104 12123 1
12008 12105 12108 1
12009 12105 12109 1
12010 12105 12107 1
12011 12109 12111 1
12012 12109 12110 1
12013 12112 12114 1
12014 12112 12115 1
12015 12112 12113 1
12016 12116 12135 1
12017 12116 12117 1
12018 12116 12118 1
12019 12116 12124 1
12020 12117 12119 1
12021 12117 12121 1
12022 12117 12120 1
12023 12121 12122 1
12024 12121 12123 1
12025 12124 12125 1
12026 12124 12127 1
12027 12124 12126 1
12028 12128 12136 1
12029 12128 12130 1
12030 12128 12129 1
12031 12128 12147 1
12032 12129 12132 1
12033 12129 12131 1
12034 12129 12133 1
12035 12133 12135 1
12036 12133 12134 1
12037 12136 12138 1
12038 12136 12139 1
12039 12136 12137 1
12040 12140 12159 1
12041 12140 12141 1
12042 12140 12142 1
12043 12140 12148 1
12044 12141 12143 1
12045 12141 12145 1
12046 12141 12144 1
12047 12145 12146 1
12048 12145 12147 1
12049 12148 12149 1
12050 12148 12150 1
12051 12148 12151 1
12052 12152 12171 1
12053 12152 12154 1
12054 12152 12153 1
12055 12152 12160 1
12056 12153 12155 1
12057 12153 12157 1
12058 12153 12156 1
12059 12157 12159 1
12060 12157 12158 1
12061 12160 12162 1
12062 12160 12163 1
12063 12160 12161 1
12064 12164 12183 1
12065 12164 12166 1
12066 12164 12172 1
12067 12164 12165 1
12068 12165 12169 1
12069 12165 12168 1
12070 12165 12167 1
12071 12169 12170 1
12072 12169 12171 1
12073 12172 12173 1
12074 12172 12174 1
12075 12172 12175 1
12076 12176 12177 1
12077 12176 12195 1
12078 12176 12178 1
12079 12176 12184 1
12080 12177 12181 1
12081 12177 12179 1
12082 12177 12180 1
12083 12181 12183 1
12084 12181 12182 1
12085 12184 12185 1
12086 12184 12186 1
12087 12184 12187 1
12088 12188 12207 1
12089 12188 12196 1
12090 12188 12190 1
12091 12188 12189 1
12092 12189 12193 1
12093 12189 12192 1
12094 12189 12191 1
12095 12193 12194 1
12096 12193 12195 1
12097 12196 12199 1
12098 12196 12198 1
12099 12196 12197 1
12100 12200 12219 1
12101 12200 12202 1
12102 12200 12201 1
12103 12200 12208 1
12104 12201 12204 1
12105 12201 12203 1
12106 12201 12205 1
12107 12205 12207 1
12108 12205 12206 1
12109 12208 12211 1
12110 12208 12209 1
12111 12208 12210 1
12112 12212 12231 1
12113 12212 12220 1
12114 12212 12213 1
12115 12212 12214 1
12116 12213 12217 1
12117 12213 12215 1
12118 12213 12216 1
12119 12217 12218 1
12120 12217 12219 1
12121 12220 12223 1
12122 12220 12222 1
12123 12220 12221 1
12124 12224 12243 1
12125 12224 12226 1
12126 12224 12225 1
12127 12224 12232 1
12128 12225 12227 1
12129 12225 12228 1
12130 12225 12229 1
12131 12229 12231 1
12132 12229 12230 1
12133 12232 12233 1
12134 12232 12234 1
12135 12232 12235 1
12136 12236 12237 1
12137 12236 12238 1
12138 12236 12255 1
12139 12236 12244 1
12140 12237 12239 1
12141 12237 12241 1
12142 12237 12240 1
12143 12241 12242 1
12144 12241 12243 1
12145 12244 12247 1
12146 12244 12245 1
12147 12244 12246 1
12148 12248 12267 1
12149 12248 12256 1
12150 12248 12250 1
12151 12248 12249 1
12152 12249 12251 1
12153 12249 12252 1
12154 12249 12253 1
12155 12253 12255 1
12156 12253 12254 1
12157 12256 12259 1
12158 12256 12257 1
12159 12256 12258 1
12160 12260 12261 1
12161 12260 12262 1
12162 12260 12279 1
12163 12260 12268 1
12164 12261 12263 1
12165 12261 12265 1
12166 12261 12264 1
12167 12265 12266 1
12168 12265 12267 1
12169 12268 12269 1
12170 12268 12270 1
12171 12268 12271 1
12172 12272 12291 1
12173 12272 12280 1
12174 12272 12274 1
12175 12272 12273 1
12176 12273 12275 1
12177 12273 12276 1
12178 12273 12277 1
12179 12277 12278 1
12180 12277 12279 1
12181 12280 12281 1
12182 12280 12283 1
12183 12280 12282 1
12184 12284 12286 1
12185 12284 12285 1
12186 12284 12292 1
12187 12285 12289 1
12188 12285 12288 1
12189 12285 12287 1
12190 12289 12290 1
12191 12289 12291 1
12192 12292 12293 1
12193 12292 12294 1
12194 12292 12295 1
12195 12296 12297 1
12196 12297 12299 1
12197 12297 12298 1
12198 12297 12305 1
12199 12298 12301 1
12200 12298 12300 1
12201 12298 12302 1
12202 12302 12304 1
12203 12302 12303 1
12204 12305 12306 1
12205 12305 12307 1
12206 12305 12308 1
12207 12309 12311 1
12208 12309 12318 1
12209 12309 12310 1
12210 12310 12314 1
12211 12310 12312 1
12212 12310 12313 1
12213 12314 12315 1
12214 12314 12316 1
12215 12316 12317 1
12216 12318 12321 1
12217 12318 12319 1
12218 12318 12320 1
12219 12322 12341 1
12220 12322 12330 1
12221 12322 12323 1
12222 12322 12324 1
12223 12323 12326 1
12224 12323 12325 1
12225 12323 12327 1
12226 12327 12328 1
12227 12327 12329 1
12228 12330 12331 1
12229 12330 12332 1
12230 12330 12333 1
12231 12334 12342 1
12232 12334 12353 1
12233 12334 12335 1
12234 12334 12336 1
12235 12335 12339 1
12236 12335 12337 1
12237 12335 12338 1
12238 12339 12340 1
12239 12339 12341 1
12240 12342 12345 1
12241 12342 12343 1
12242 12342 12344 1
12243 12346 12354 1
12244 12346 12365 1
12245 12346 12347 1
12246 12346 12348 1
12247 12347 12350 1
12248 12347 12349 1
12249 12347 12351 1
12250 12351 12352 1
12251 12351 12353 1
12252 12354 12356 1
12253 12354 12355 1
12254 12354 12357 1
12255 12358 12366 1
12256 12358 12359 1
12257 12358 12360 1
12258 12358 12377 1
12259 12359 12362 1
12260 12359 12363 1
12261 12359 12361 1
12262 12363 12365 1
12263 12363 12364 1
12264 12366 12368 1
12265 12366 12367 1
12266 12366 12369 1
12267 12370 12372 1
12268 12370 12371 1
12269 12370 12378 1
12270 12370 12389 1
12271 12371 12373 1
12272 12371 12374 1
12273 12371 12375 1
12274 12375 12377 1
12275 12375 12376 1
12276 12378 12381 1
12277 12378 12379 1
12278 12378 12380 1
12279 12382 12383 1
12280 12382 12390 1
12281 12382 12384 1
12282 12382 12401 1
12283 12383 12386 1
12284 12383 12385 1
12285 12383 12387 1
12286 12387 12389 1
12287 12387 12388 1
12288 12390 12392 1
12289 12390 12391 1
12290 12390 12393 1
12291 12394 12395 1
12292 12394 12413 1
12293 12394 12396 1
12294 12394 12402 1
12295 12395 12399 1
12296 12395 12398 1
12297 12395 12397 1
12298 12399 12401 1
12299 12399 12400 1
12300 12402 12403 1
12301 12402 12405 1
12302 12402 12404 1
12303 12406 12407 1
12304 12406 12414 1
12305 12406 12408 1
12306 12406 12425 1
12307 12407 12409 1
12308 12407 12410 1
12309 12407 12411 1
12310 12411 12412 1
12311 12411 12413 1
12312 12414 12416 1
12313 12414 12415 1
12314 12414 12417 1
12315 12418 12437 1
12316 12418 12419 1
12317 12418 12420 1
12318 12418 12426 1
12319 12419 12423 1
12320 12419 12422 1
12321 12419 12421 1
12322 12423 12425 1
12323 12423 12424 1
12324 12426 12429 1
12325 12426 12427 1
12326 12426 12428 1
12327 12430 12432 1
12328 12430 12431 1
12329 12430 12438 1
12330 12430 12449 1
12331 12431 12433 1
12332 12431 12434 1
12333 12431 12435 1
12334 12435 12436 1
12335 12435 12437 1
12336 12438 12440 1
12337 12438 12439 1
12338 12438 12441 1
12339 12442 12461 1
12340 12442 12443 1
12341 12442 12444 1
12342 12442 12450 1
12343 12443 12446 1
12344 12443 12445 1
12345 12443 12447 1
12346 12447 12448 1
12347 12447 12449 1
12348 12450 12451 1
12349 12450 12453 1
12350 12450 12452 1
12351 12454 12456 1
12352 12454 12462 1
12353 12454 12455 1
12354 12454 12473 1
12355 12455 12457 1
12356 12455 12459 1
12357 12455 12458 1
12358 12459 12461 1
12359 12459 12460 1
12360 12462 12464 1
12361 12462 12463 1
12362 12462 12465 1
12363 12466 12485 1
12364 12466 12468 1
12365 12466 12467 1
12366 12466 12474 1
12367 12467 12469 1
12368 12467 12470 1
12369 12467 12471 1
12370 12471 12472 1
12371 12471 12473 1
12372 12474 12477 1
12373 12474 12476 1
12374 12474 12475 1
12375 12478 12486 1
12376 12478 12480 1
12377 12478 12497 1
12378 12478 12479 1
12379 12479 12482 1
12380 12479 12483 1
12381 12479 12481 1
12382 12483 12485 1
12383 12483 12484 1
12384 12486 12488 1
12385 12486 12487 1
12386 12486 12489 1
12387 12490 12509 1
12388 12490 12491 1
12389 12490 12492 1
12390 12490 12498 1
12391 12491 12493 1
12392 12491 12494 1
12393 12491 12495 1
12394 12495 12496 1
12395 12495 12497 1
12396 12498 12499 1
12397 12498 12500 1
12398 12498 12501 1
12399 12502 12510 1
12400 12502 12504 1
12401 12502 12521 1
12402 12502 12503 1
12403 12503 12507 1
12404 12503 12505 1
12405 12503 12506 1
12406 12507 12509 1
12407 12507 12508 1
12408 12510 12512 1
12409 12510 12511 1
12410 12510 12513 1
12411 12514 12533 1
12412 12514 12516 1
12413 12514 12515 1
12414 12514 12522 1
12415 12515 12517 1
12416 12515 12518 1
12417 12515 12519 1
12418 12519 12520 1
12419 12519 12521 1
12420 12522 12524 1
12421 12522 12523 1
12422 12522 12525 1
12423 12526 12527 1
12424 12526 12545 1
12425 12526 12528 1
12426 12526 12534 1
12427 12527 12531 1
12428 12527 12529 1
12429 12527 12530 1
12430 12531 12533 1
12431 12531 12532 1
12432 12534 12536 1
12433 12534 12537 1
12434 12534 12535 1
12435 12538 12546 1
12436 12538 12557 1
12437 12538 12540 1
12438 12538 12539 1
12439 12539 12542 1
12440 12539 12543 1
12441 12539 12541 1
12442 12543 12544 1
12443 12543 12545 1
12444 12546 12548 1
12445 12546 12549 1
12446 12546 12547 1
12447 12550 12569 1
12448 12550 12551 1
12449 12550 12552 1
12450 12550 12558 1
12451 12551 12555 1
12452 12551 12553 1
12453 12551 12554 1
12454 12555 12557 1
12455 12555 12556 1
12456 12558 12560 1
12457 12558 12559 1
12458 12558 12561 1
12459 12562 12563 1
12460 12562 12564 1
12461 12562 12570 1
12462 12562 12581 1
12463 12563 12567 1
12464 12563 12565 1
12465 12563 12566 1
12466 12567 12568 1
12467 12567 12569 1
12468 12570 12573 1
12469 12570 12572 1
12470 12570 12571 1
12471 12574 12575 1
12472 12574 12593 1
12473 12574 12576 1
12474 12574 12582 1
12475 12575 12579 1
12476 12575 12578 1
12477 12575 12577 1
12478 12579 12581 1
12479 12579 12580 1
12480 12582 12583 1
12481 12582 12585 1
12482 12582 12584 1
12483 12586 12587 1
12484 12586 12588 1
12485 12586 12594 1
12486 12586 12605 1
12487 12587 12589 1
12488 12587 12591 1
12489 12587 12590 1
12490 12591 12592 1
12491 12591 12593 1
12492 12594 12595 1
12493 12594 12597 1
12494 12594 12596 1
12495 12598 12617 1
12496 12598 12600 1
12497 12598 12606 1
12498 12598 12599 1
12499 12599 12601 1
12500 12599 12602 1
12501 12599 12603 1
12502 12603 12605 1
12503 12603 12604 1
12504 12606 12607 1
12505 12606 12608 1
12506 12606 12609 1
12507 12610 12611 1
12508 12610 12629 1
12509 12610 12612 1
12510 12610 12618 1
12511 12611 12615 1
12512 12611 12613 1
12513 12611 12614 1
12514 12615 12616 1
12515 12615 12617 1
12516 12618 12619 1
12517 12618 12621 1
12518 12618 12620 1
12519 12622 12641 1
12520 12622 12630 1
12521 12622 12623 1
12522 12622 12624 1
12523 12623 12625 1
12524 12623 12626 1
12525 12623 12627 1
12526 12627 12628 1
12527 12627 12629 1
12528 12630 12633 1
12529 12630 12632 1
12530 12630 12631 1
12531 12634 12636 1
12532 12634 12653 1
12533 12634 12635 1
12534 12634 12642 1
12535 12635 12639 1
12536 12635 12637 1
12537 12635 12638 1
12538 12639 12640 1
12539 12639 12641 1
12540 12642 12645 1
12541 12642 12643 1
12542 12642 12644 1
12543 12646 12654 1
12544 12646 12647 1
12545 12646 12648 1
12546 12647 12650 1
12547 12647 12649 1
12548 12647 12651 1
12549 12651 12652 1
12550 12651 12653 1
12551 12654 12657 1
12552 12654 12655 1
12553 12654 12656 1
12554 12658 12659 1
12555 12659 12667 1
12556 12659 12660 1
12557 12659 12661 1
12558 12660 12664 1
12559 12660 12662 1
12560 12660 12663 1
12561 12664 12665 1
12562 12664 12666 1
12563 12667 12668 1
12564 12667 12670 1
12565 12667 12669 1
12566 12671 12673 1
12567 12671 12672 1
12568 12671 12680 1
12569 12672 12675 1
12570 12672 12674 1
12571 12672 12676 1
12572 12676 12678 1
12573 12676 12677 1
12574 12678 12679 1
12575 12680 12681 1
12576 12680 12682 1
12577 12680 12683 1
12578 12684 12686 1
12579 12684 12685 1
12580 12684 12692 1
12581 12684 12703 1
12582 12685 12688 1
12583 12685 12687 1
12584 12685 12689 1
12585 12689 12691 1
12586 12689 12690 1
12587 12692 12695 1
12588 12692 12694 1
12589 12692 12693 1
12590 12696 12698 1
12591 12696 12697 1
12592 12696 12704 1
12593 12696 12715 1
12594 12697 12699 1
12595 12697 12700 1
12596 12697 12701 1
12597 12701 12703 1
12598 12701 12702 1
12599 12704 12705 1
12600 12704 12706 1
12601 12704 12707 1
12602 12708 12716 1
12603 12708 12710 1
12604 12708 12709 1
12605 12708 12727 1
12606 12709 12712 1
12607 12709 12711 1
12608 12709 12713 1
12609 12713 12714 1
12610 12713 12715 1
12611 12716 12717 1
12612 12716 12719 1
12613 12716 12718 1
12614 12720 12722 1
12615 12720 12728 1
12616 12720 12721 1
12617 12720 12739 1
12618 12721 12724 1
12619 12721 12723 1
12620 12721 12725 1
12621 12725 12727 1
12622 12725 12726 1
12623 12728 12731 1
12624 12728 12729 1
12625 12728 12730 1
12626 12732 12734 1
12627 12732 12733 1
12628 12732 12740 1
12629 12732 12751 1
12630 12733 12735 1
12631 12733 12736 1
12632 12733 12737 1
12633 12737 12738 1
12634 12737 12739 1
12635 12740 12742 1
12636 12740 12743 1
12637 12740 12741 1
12638 12744 12746 1
12639 12744 12745 1
12640 12744 12752 1
12641 12744 12763 1
12642 12745 12747 1
12643 12745 12748 1
12644 12745 12749 1
12645 12749 12751 1
12646 12749 12750 1
12647 12752 12755 1
12648 12752 12753 1
12649 12752 12754 1
12650 12756 12757 1
12651 12756 12758 1
12652 12756 12764 1
12653 12756 12775 1
12654 12757 12759 1
12655 12757 12760 1
12656 12757 12761 1
12657 12761 12762 1
12658 12761 12763 1
12659 12764 12765 1
12660 12764 12766 1
12661 12764 12767 1
12662 12768 12770 1
12663 12768 12769 1
12664 12768 12776 1
12665 12768 12787 1
12666 12769 12771 1
12667 12769 12773 1
12668 12769 12772 1
12669 12773 12775 1
12670 12773 12774 1
12671 12776 12777 1
12672 12776 12778 1
12673 12776 12779 1
12674 12780 12782 1
12675 12780 12781 1
12676 12780 12788 1
12677 12780 12799 1
12678 12781 12783 1
12679 12781 12784 1
12680 12781 12785 1
12681 12785 12787 1
12682 12785 12786 1
12683 12788 12790 1
12684 12788 12789 1
12685 12788 12791 1
12686 12792 12794 1
12687 12792 12800 1
12688 12792 12811 1
12689 12792 12793 1
12690 12793 12797 1
12691 12793 12796 1
12692 12793 12795 1
12693 12797 12799 1
12694 12797 12798 1
12695 12800 12801 1
12696 12800 12802 1
12697 12800 12803 1
12698 12804 12806 1
12699 12804 12812 1
12700 12804 12805 1
12701 12804 12823 1
12702 12805 12808 1
12703 12805 12809 1
12704 12805 12807 1
12705 12809 12811 1
12706 12809 12810 1
12707 12812 12813 1
12708 12812 12814 1
12709 12812 12815 1
12710 12816 12835 1
12711 12816 12817 1
12712 12816 12818 1
12713 12816 12824 1
12714 12817 12821 1
12715 12817 12819 1
12716 12817 12820 1
12717 12821 12823 1
12718 12821 12822 1
12719 12824 12827 1
12720 12824 12825 1
12721 12824 12826 1
12722 12828 12836 1
12723 12828 12830 1
12724 12828 12829 1
12725 12828 12847 1
12726 12829 12832 1
12727 12829 12833 1
12728 12829 12831 1
12729 12833 12835 1
12730 12833 12834 1
12731 12836 12838 1
12732 12836 12839 1
12733 12836 12837 1
12734 12840 12859 1
12735 12840 12841 1
12736 12840 12848 1
12737 12840 12842 1
12738 12841 12843 1
12739 12841 12845 1
12740 12841 12844 1
12741 12845 12846 1
12742 12845 12847 1
12743 12848 12849 1
12744 12848 12851 1
12745 12848 12850 1
12746 12852 12871 1
12747 12852 12853 1
12748 12852 12854 1
12749 12852 12860 1
12750 12853 12856 1
12751 12853 12855 1
12752 12853 12857 1
12753 12857 12859 1
12754 12857 12858 1
12755 12860 12862 1
12756 12860 12863 1
12757 12860 12861 1
12758 12864 12883 1
12759 12864 12865 1
12760 12864 12866 1
12761 12864 12872 1
12762 12865 12867 1
12763 12865 12869 1
12764 12865 12868 1
12765 12869 12870 1
12766 12869 12871 1
12767 12872 12873 1
12768 12872 12874 1
12769 12872 12875 1
12770 12876 12895 1
12771 12876 12878 1
12772 12876 12877 1
12773 12876 12884 1
12774 12877 12879 1
12775 12877 12881 1
12776 12877 12880 1
12777 12881 12883 1
12778 12881 12882 1
12779 12884 12886 1
12780 12884 12885 1
12781 12884 12887 1
12782 12888 12907 1
12783 12888 12890 1
12784 12888 12896 1
12785 12888 12889 1
12786 12889 12893 1
12787 12889 12892 1
12788 12889 12891 1
12789 12893 12894 1
12790 12893 12895 1
12791 12896 12897 1
12792 12896 12898 1
12793 12896 12899 1
12794 12900 12901 1
12795 12900 12919 1
12796 12900 12902 1
12797 12900 12908 1
12798 12901 12905 1
12799 12901 12903 1
12800 12901 12904 1
12801 12905 12907 1
12802 12905 12906 1
12803 12908 12909 1
12804 12908 12910 1
12805 12908 12911 1
12806 12912 12931 1
12807 12912 12914 1
12808 12912 12920 1
12809 12912 12913 1
12810 12913 12917 1
12811 12913 12916 1
12812 12913 12915 1
12813 12917 12918 1
12814 12917 12919 1
12815 12920 12922 1
12816 12920 12921 1
12817 12920 12923 1
12818 12924 12943 1
12819 12924 12926 1
12820 12924 12925 1
12821 12924 12932 1
12822 12925 12928 1
12823 12925 12927 1
12824 12925 12929 1
12825 12929 12931 1
12826 12929 12930 1
12827 12932 12935 1
12828 12932 12933 1
12829 12932 12934 1
12830 12936 12955 1
12831 12936 12944 1
12832 12936 12937 1
12833 12936 12938 1
12834 12937 12940 1
12835 12937 12941 1
12836 12937 12939 1
12837 12941 12942 1
12838 12941 12943 1
12839 12944 12947 1
12840 12944 12946 1
12841 12944 12945 1
12842 12948 12967 1
12843 12948 12950 1
12844 12948 12956 1
12845 12948 12949 1
12846 12949 12951 1
12847 12949 12952 1
12848 12949 12953 1
12849 12953 12955 1
12850 12953 12954 1
12851 12956 12959 1
12852 12956 12957 1
12853 12956 12958 1
12854 12960 12961 1
12855 12960 12962 1
12856 12960 12979 1
12857 12960 12968 1
12858 12961 12963 1
12859 12961 12965 1
12860 12961 12964 1
12861 12965 12966 1
12862 12965 12967 1
12863 12968 12971 1
12864 12968 12969 1
12865 12968 12970 1
12866 12972 12991 1
12867 12972 12980 1
12868 12972 12974 1
12869 12972 12973 1
12870 12973 12975 1
12871 12973 12976 1
12872 12973 12977 1
12873 12977 12979 1
12874 12977 12978 1
12875 12980 12983 1
12876 12980 12982 1
12877 12980 12981 1
12878 12984 12985 1
12879 12984 12986 1
12880 12984 13003 1
12881 12984 12992 1
12882 12985 12987 1
12883 12985 12989 1
12884 12985 12988 1
12885 12989 12990 1
12886 12989 12991 1
12887 12992 12993 1
12888 12992 12995 1
12889 12992 12994 1
12890 12996 12998 1
12891 12996 12997 1
12892 12996 13004 1
12893 12996 13015 1
12894 12997 12999 1
12895 12997 13000 1
12896 12997 13001 1
12897 13001 13002 1
12898 13001 13003 1
12899 13004 13005 1
12900 13004 13007 1
12901 13004 13006 1
12902 13008 13010 1
12903 13008 13009 1
12904 13008 13016 1
12905 13009 13012 1
12906 13009 13013 1
12907 13009 13011 1
12908 13013 13014 1
12909 13013 13015 1
12910 13016 13017 1
12911 13016 13018 1
12912 13016 13019 1
12913 13020 13021 1
12914 13021 13023 1
12915 13021 13022 1
12916 13021 13029 1
12917 13022 13025 1
12918 13022 13024 1
12919 13022 13026 1
12920 13026 13028 1
12921 13026 13027 1
12922 13029 13030 1
12923 13029 13031 1
12924 13029 13032 1
12925 13033 13042 1
12926 13033 13034 1
12927 13033 13035 1
12928 13034 13038 1
12929 13034 13036 1
12930 13034 13037 1
12931 13038 13039 1
12932 13038 13040 1
12933 13040 13041 1
12934 13042 13043 1
12935 13042 13045 1
12936 13042 13044 1
12937 13046 13065 1
12938 13046 13054 1
12939 13046 13047 1
12940 13046 13048 1
12941 13047 13050 1
12942 13047 13049 1
12943 13047 13051 1
12944 13051 13052 1
12945 13051 13053 1
12946 13054 13055 1
12947 13054 13057 1
12948 13054 13056 1
12949 13058 13066 1
12950 13058 13077 1
12951 13058 13059 1
12952 13058 13060 1
12953 13059 13063 1
12954 13059 13061 1
12955 13059 13062 1
12956 13063 13064 1
12957 13063 13065 1
12958 13066 13069 1
12959 13066 13067 1
12960 13066 13068 1
12961 13070 13078 1
12962 13070 13089 1
12963 13070 13071 1
12964 13070 13072 1
12965 13071 13074 1
12966 13071 13073 1
12967 13071 13075 1
12968 13075 13076 1
12969 13075 13077 1
12970 13078 13080 1
12971 13078 13079 1
12972 13078 13081 1
12973 13082 13090 1
12974 13082 13083 1
12975 13082 13101 1
12976 13082 13084 1
12977 13083 13086 1
12978 13083 13087 1
12979 13083 13085 1
12980 13087 13089 1
12981 13087 13088 1
12982 13090 13092 1
12983 13090 13091 1
12984 13090 13093 1
12985 13094 13113 1
12986 13094 13095 1
12987 13094 13102 1
12988 13094 13096 1
12989 13095 13099 1
12990 13095 13098 1
12991 13095 13097 1
12992 13099 13100 1
12993 13099 13101 1
12994 13102 13104 1
12995 13102 13103 1
12996 13102 13105 1
12997 13106 13125 1
12998 13106 13107 1
12999 13106 13114 1
13000 13106 13108 1
13001 13107 13110 1
13002 13107 13109 1
13003 13107 13111 1
13004 13111 13113 1
13005 13111 13112 1
13006 13114 13116 1
13007 13114 13115 1
13008 13114 13117 1
13009 13118 13119 1
13010 13118 13137 1
13011 13118 13120 1
13012 13118 13126 1
13013 13119 13123 1
13014 13119 13122 1
13015 13119 13121 1
13016 13123 13124 1
13017 13123 13125 1
13018 13126 13127 1
13019 13126 13129 1
13020 13126 13128 1
13021 13130 13149 1
13022 13130 13131 1
13023 13130 13138 1
13024 13130 13132 1
13025 13131 13133 1
13026 13131 13134 1
13027 13131 13135 1
13028 13135 13136 1
13029 13135 13137 1
13030 13138 13140 1
13031 13138 13139 1
13032 13138 13141 1
13033 13142 13161 1
13034 13142 13143 1
13035 13142 13144 1
13036 13142 13150 1
13037 13143 13146 1
13038 13143 13147 1
13039 13143 13145 1
13040 13147 13148 1
13041 13147 13149 1
13042 13150 13153 1
13043 13150 13151 1
13044 13150 13152 1
13045 13154 13156 1
13046 13154 13155 1
13047 13154 13162 1
13048 13154 13173 1
13049 13155 13157 1
13050 13155 13158 1
13051 13155 13159 1
13052 13159 13160 1
13053 13159 13161 1
13054 13162 13163 1
13055 13162 13165 1
13056 13162 13164 1
13057 13166 13185 1
13058 13166 13167 1
13059 13166 13168 1
13060 13166 13174 1
13061 13167 13170 1
13062 13167 13169 1
13063 13167 13171 1
13064 13171 13172 1
13065 13171 13173 1
13066 13174 13175 1
13067 13174 13177 1
13068 13174 13176 1
13069 13178 13180 1
13070 13178 13179 1
13071 13178 13186 1
13072 13178 13197 1
13073 13179 13181 1
13074 13179 13183 1
13075 13179 13182 1
13076 13183 13185 1
13077 13183 13184 1
13078 13186 13189 1
13079 13186 13187 1
13080 13186 13188 1
13081 13190 13209 1
13082 13190 13192 1
13083 13190 13191 1
13084 13190 13198 1
13085 13191 13193 1
13086 13191 13194 1
13087 13191 13195 1
13088 13195 13196 1
13089 13195 13197 1
13090 13198 13201 1
13091 13198 13199 1
13092 13198 13200 1
13093 13202 13204 1
13094 13202 13210 1
13095 13202 13221 1
13096 13202 13203 1
13097 13203 13206 1
13098 13203 13207 1
13099 13203 13205 1
13100 13207 13209 1
13101 13207 13208 1
13102 13210 13211 1
13103 13210 13213 1
13104 13210 13212 1
13105 13214 13233 1
13106 13214 13216 1
13107 13214 13215 1
13108 13214 13222 1
13109 13215 13218 1
13110 13215 13219 1
13111 13215 13217 1
13112 13219 13220 1
13113 13219 13221 1
13114 13222 13223 1
13115 13222 13225 1
13116 13222 13224 1
13117 13226 13234 1
13118 13226 13228 1
13119 13226 13245 1
13120 13226 13227 1
13121 13227 13231 1
13122 13227 13229 1
13123 13227 13230 1
13124 13231 13233 1
13125 13231 13232 1
13126 13234 13236 1
13127 13234 13235 1
13128 13234 13237 1
13129 13238 13257 1
13130 13238 13240 1
13131 13238 13239 1
13132 13238 13246 1
13133 13239 13241 1
13134 13239 13242 1
13135 13239 13243 1
13136 13243 13244 1
13137 13243 13245 1
13138 13246 13247 1
13139 13246 13249 1
13140 13246 13248 1
13141 13250 13258 1
13142 13250 13252 1
13143 13250 13251 1
13144 13250 13269 1
13145 13251 13255 1
13146 13251 13253 1
13147 13251 13254 1
13148 13255 13257 1
13149 13255 13256 1
13150 13258 13260 1
13151 13258 13261 1
13152 13258 13259 1
13153 13262 13270 1
13154 13262 13264 1
13155 13262 13263 1
13156 13262 13281 1
13157 13263 13266 1
13158 13263 13267 1
13159 13263 13265 1
13160 13267 13268 1
13161 13267 13269 1
13162 13270 13272 1
13163 13270 13273 1
13164 13270 13271 1
13165 13274 13293 1
13166 13274 13275 1
13167 13274 13276 1
13168 13274 13282 1
13169 13275 13279 1
13170 13275 13277 1
13171 13275 13278 1
13172 13279 13281 1
13173 13279 13280 1
13174 13282 13284 1
13175 13282 13283 1
13176 13282 13285 1
13177 13286 13305 1
13178 13286 13287 1
13179 13286 13288 1
13180 13286 13294 1
13181 13287 13291 1
13182 13287 13289 1
13183 13287 13290 1
13184 13291 13292 1
13185 13291 13293 1
13186 13294 13297 1
13187 13294 13296 1
13188 13294 13295 1
13189 13298 13299 1
13190 13298 13317 1
13191 13298 13300 1
13192 13298 13306 1
13193 13299 13303 1
13194 13299 13301 1
13195 13299 13302 1
13196 13303 13305 1
13197 13303 13304 1
13198 13306 13307 1
13199 13306 13309 1
13200 13306 13308 1
13201 13310 13329 1
13202 13310 13311 1
13203 13310 13312 1
13204 13310 13318 1
13205 13311 13313 1
13206 13311 13315 1
13207 13311 13314 1
13208 13315 13316 1
13209 13315 13317 1
13210 13318 13319 1
13211 13318 13321 1
13212 13318 13320 1
13213 13322 13341 1
13214 13322 13324 1
13215 13322 13330 1
13216 13322 13323 1
13217 13323 13325 1
13218 13323 13326 1
13219 13323 13327 1
13220 13327 13328 1
13221 13327 13329 1
13222 13330 13331 1
13223 13330 13332 1
13224 13330 13333 1
13225 13334 13335 1
13226 13334 13353 1
13227 13334 13336 1
13228 13334 13342 1
13229 13335 13339 1
13230 13335 13337 1
13231 13335 13338 1
13232 13339 13340 1
13233 13339 13341 1
13234 13342 13343 1
13235 13342 13344 1
13236 13342 13345 1
13237 13346 13365 1
13238 13346 13354 1
13239 13346 13347 1
13240 13346 13348 1
13241 13347 13349 1
13242 13347 13350 1
13243 13347 13351 1
13244 13351 13352 1
13245 13351 13353 1
13246 13354 13357 1
13247 13354 13356 1
13248 13354 13355 1
13249 13358 13360 1
13250 13358 13377 1
13251 13358 13359 1
13252 13358 13366 1
13253 13359 13363 1
13254 13359 13361 1
13255 13359 13362 1
13256 13363 13364 1
13257 13363 13365 1
13258 13366 13369 1
13259 13366 13367 1
13260 13366 13368 1
13261 13370 13378 1
13262 13370 13371 1
13263 13370 13372 1
13264 13371 13374 1
13265 13371 13373 1
13266 13371 13375 1
13267 13375 13376 1
13268 13375 13377 1
13269 13378 13381 1
13270 13378 13379 1
13271 13378 13380 1
13272 13382 13383 1
13273 13383 13391 1
13274 13383 13384 1
13275 13383 13385 1
13276 13384 13388 1
13277 13384 13386 1
13278 13384 13387 1
13279 13388 13389 1
13280 13388 13390 1
13281 13391 13392 1
13282 13391 13394 1
13283 13391 13393 1
13284 13395 13397 1
13285 13395 13396 1
13286 13395 13404 1
13287 13396 13399 1
13288 13396 13398 1
13289 13396 13400 1
13290 13400 13402 1
13291 13400 13401 1
13292 13402 13403 1
13293 13404 13405 1
13294 13404 13406 1
13295 13404 13407 1
13296 13408 13410 1
13297 13408 13409 1
13298 13408 13427 1
13299 13408 13416 1
13300 13409 13412 1
13301 13409 13411 1
13302 13409 13413 1
13303 13413 13415 1
13304 13413 13414 1
13305 13416 13417 1
13306 13416 13418 1
13307 13416 13419 1
13308 13420 13422 1
13309 13420 13428 1
13310 13420 13421 1
13311 13420 13439 1
13312 13421 13423 1
13313 13421 13424 1
13314 13421 13425 1
13315 13425 13427 1
13316 13425 13426 1
13317 13428 13431 1
13318 13428 13429 1
13319 13428 13430 1
13320 13432 13440 1
13321 13432 13434 1
13322 13432 13433 1
13323 13432 13451 1
13324 13433 13436 1
13325 13433 13435 1
13326 13433 13437 1
13327 13437 13438 1
13328 13437 13439 1
13329 13440 13441 1
13330 13440 13443 1
13331 13440 13442 1
13332 13444 13446 1
13333 13444 13452 1
13334 13444 13445 1
13335 13444 13463 1
13336 13445 13448 1
13337 13445 13447 1
13338 13445 13449 1
13339 13449 13451 1
13340 13449 13450 1
13341 13452 13455 1
13342 13452 13453 1
13343 13452 13454 1
13344 13456 13458 1
13345 13456 13457 1
13346 13456 13464 1
13347 13456 13475 1
13348 13457 13459 1
13349 13457 13460 1
13350 13457 13461 1
13351 13461 13462 1
13352 13461 13463 1
13353 13464 13467 1
13354 13464 13465 1
13355 13464 13466 1
13356 13468 13470 1
13357 13468 13469 1
13358 13468 13476 1
13359 13468 13487 1
13360 13469 13471 1
13361 13469 13472 1
13362 13469 13473 1
13363 13473 13475 1
13364 13473 13474 1
13365 13476 13478 1
13366 13476 13479 1
13367 13476 13477 1
13368 13480 13481 1
13369 13480 13482 1
13370 13480 13488 1
13371 13480 13499 1
13372 13481 13483 1
13373 13481 13484 1
13374 13481 13485 1
13375 13485 13486 1
13376 13485 13487 1
13377 13488 13489 1
13378 13488 13490 1
13379 13488 13491 1
13380 13492 13494 1
13381 13492 13493 1
13382 13492 13500 1
13383 13492 13511 1
13384 13493 13495 1
13385 13493 13496 1
13386 13493 13497 1
13387 13497 13499 1
13388 13497 13498 1
13389 13500 13501 1
13390 13500 13502 1
13391 13500 13503 1
13392 13504 13506 1
13393 13504 13505 1
13394 13504 13512 1
13395 13504 13523 1
13396 13505 13507 1
13397 13505 13508 1
13398 13505 13509 1
13399 13509 13511 1
13400 13509 13510 1
13401 13512 13514 1
13402 13512 13513 1
13403 13512 13515 1
13404 13516 13518 1
13405 13516 13524 1
13406 13516 13535 1
13407 13516 13517 1
13408 13517 13521 1
13409 13517 13520 1
13410 13517 13519 1
13411 13521 13523 1
13412 13521 13522 1
13413 13524 13525 1
13414 13524 13526 1
13415 13524 13527 1
13416 13528 13530 1
13417 13528 13536 1
13418 13528 13529 1
13419 13528 13547 1
13420 13529 13532 1
13421 13529 13533 1
13422 13529 13531 1
13423 13533 13535 1
13424 13533 13534 1
13425 13536 13537 1
13426 13536 13538 1
13427 13536 13539 1
13428 13540 13542 1
13429 13540 13548 1
13430 13540 13559 1
13431 13540 13541 1
13432 13541 13545 1
13433 13541 13544 1
13434 13541 13543 1
13435 13545 13547 1
13436 13545 13546 1
13437 13548 13551 1
13438 13548 13549 1
13439 13548 13550 1
13440 13552 13560 1
13441 13552 13554 1
13442 13552 13553 1
13443 13552 13571 1
13444 13553 13555 1
13445 13553 13556 1
13446 13553 13557 1
13447 13557 13559 1
13448 13557 13558 1
13449 13560 13563 1
13450 13560 13562 1
13451 13560 13561 1
13452 13564 13583 1
13453 13564 13565 1
13454 13564 13572 1
13455 13564 13566 1
13456 13565 13567 1
13457 13565 13568 1
13458 13565 13569 1
13459 13569 13571 1
13460 13569 13570 1
13461 13572 13573 1
13462 13572 13575 1
13463 13572 13574 1
13464 13576 13595 1
13465 13576 13577 1
13466 13576 13578 1
13467 13576 13584 1
13468 13577 13579 1
13469 13577 13581 1
13470 13577 13580 1
13471 13581 13583 1
13472 13581 13582 1
13473 13584 13585 1
13474 13584 13586 1
13475 13584 13587 1
13476 13588 13607 1
13477 13588 13589 1
13478 13588 13590 1
13479 13588 13596 1
13480 13589 13591 1
13481 13589 13593 1
13482 13589 13592 1
13483 13593 13594 1
13484 13593 13595 1
13485 13596 13597 1
13486 13596 13598 1
13487 13596 13599 1
13488 13600 13619 1
13489 13600 13602 1
13490 13600 13601 1
13491 13600 13608 1
13492 13601 13603 1
13493 13601 13604 1
13494 13601 13605 1
13495 13605 13606 1
13496 13605 13607 1
13497 13608 13610 1
13498 13608 13609 1
13499 13608 13611 1
13500 13612 13631 1
13501 13612 13614 1
13502 13612 13620 1
13503 13612 13613 1
13504 13613 13617 1
13505 13613 13616 1
13506 13613 13615 1
13507 13617 13618 1
13508 13617 13619 1
13509 13620 13621 1
13510 13620 13622 1
13511 13620 13623 1
13512 13624 13643 1
13513 13624 13626 1
13514 13624 13625 1
13515 13624 13632 1
13516 13625 13628 1
13517 13625 13629 1
13518 13625 13627 1
13519 13629 13630 1
13520 13629 13631 1
13521 13632 13633 1
13522 13632 13634 1
13523 13632 13635 1
13524 13636 13655 1
13525 13636 13638 1
13526 13636 13644 1
13527 13636 13637 1
13528 13637 13641 1
13529 13637 13640 1
13530 13637 13639 1
13531 13641 13642 1
13532 13641 13643 1
13533 13644 13646 1
13534 13644 13645 1
13535 13644 13647 1
13536 13648 13667 1
13537 13648 13650 1
13538 13648 13649 1
13539 13648 13656 1
13540 13649 13652 1
13541 13649 13653 1
13542 13649 13651 1
13543 13653 13654 1
13544 13653 13655 1
13545 13656 13659 1
13546 13656 13657 1
13547 13656 13658 1
13548 13660 13679 1
13549 13660 13668 1
13550 13660 13662 1
13551 13660 13661 1
13552 13661 13664 1
13553 13661 13665 1
13554 13661 13663 1
13555 13665 13666 1
13556 13665 13667 1
13557 13668 13671 1
13558 13668 13670 1
13559 13668 13669 1
13560 13672 13691 1
13561 13672 13680 1
13562 13672 13674 1
13563 13672 13673 1
13564 13673 13675 1
13565 13673 13676 1
13566 13673 13677 1
13567 13677 13678 1
13568 13677 13679 1
13569 13680 13683 1
13570 13680 13681 1
13571 13680 13682 1
13572 13684 13703 1
13573 13684 13692 1
13574 13684 13685 1
13575 13684 13686 1
13576 13685 13687 1
13577 13685 13688 1
13578 13685 13689 1
13579 13689 13690 1
13580 13689 13691 1
13581 13692 13695 1
13582 13692 13694 1
13583 13692 13693 1
13584 13696 13697 1
13585 13696 13698 1
13586 13696 13704 1
13587 13696 13715 1
13588 13697 13699 1
13589 13697 13700 1
13590 13697 13701 1
13591 13701 13702 1
13592 13701 13703 1
13593 13704 13705 1
13594 13704 13707 1
13595 13704 13706 1
13596 13708 13709 1
13597 13708 13710 1
13598 13708 13727 1
13599 13708 13716 1
13600 13709 13711 1
13601 13709 13712 1
13602 13709 13713 1
13603 13713 13714 1
13604 13713 13715 1
13605 13716 13717 1
13606 13716 13719 1
13607 13716 13718 1
13608 13720 13722 1
13609 13720 13721 1
13610 13720 13728 1
13611 13720 13739 1
13612 13721 13723 1
13613 13721 13724 1
13614 13721 13725 1
13615 13725 13727 1
13616 13725 13726 1
13617 13728 13729 1
13618 13728 13731 1
13619 13728 13730 1
13620 13732 13734 1
13621 13732 13733 1
13622 13732 13740 1
13623 13733 13736 1
13624 13733 13735 1
13625 13733 13737 1
13626 13737 13739 1
13627 13737 13738 1
13628 13740 13741 1
13629 13740 13742 1
13630 13740 13743 1
13631 13744 13745 1
13632 13745 13747 1
13633 13745 13746 1
13634 13745 13753 1
13635 13746 13749 1
13636 13746 13748 1
13637 13746 13750 1
13638 13750 13752 1
13639 13750 13751 1
13640 13753 13754 1
13641 13753 13755 1
13642 13753 13756 1
13643 13757 13766 1
13644 13757 13759 1
13645 13757 13758 1
13646 13758 13761 1
13647 13758 13760 1
13648 13758 13762 1
13649 13762 13763 1
13650 13762 13764 1
13651 13764 13765 1
13652 13766 13767 1
13653 13766 13769 1
13654 13766 13768 1
13655 13770 13789 1
13656 13770 13778 1
13657 13770 13771 1
13658 13770 13772 1
13659 13771 13774 1
13660 13771 13773 1
13661 13771 13775 1
13662 13775 13776 1
13663 13775 13777 1
13664 13778 13779 1
13665 13778 13781 1
13666 13778 13780 1
13667 13782 13790 1
13668 13782 13801 1
13669 13782 13784 1
13670 13782 13783 1
13671 13783 13785 1
13672 13783 13786 1
13673 13783 13787 1
13674 13787 13788 1
13675 13787 13789 1
13676 13790 13791 1
13677 13790 13792 1
13678 13790 13793 1
13679 13794 13802 1
13680 13794 13795 1
13681 13794 13813 1
13682 13794 13796 1
13683 13795 13799 1
13684 13795 13798 1
13685 13795 13797 1
13686 13799 13800 1
13687 13799 13801 1
13688 13802 13804 1
13689 13802 13803 1
13690 13802 13805 1
13691 13806 13814 1
13692 13806 13807 1
13693 13806 13825 1
13694 13806 13808 1
13695 13807 13811 1
13696 13807 13810 1
13697 13807 13809 1
13698 13811 13813 1
13699 13811 13812 1
13700 13814 13816 1
13701 13814 13815 1
13702 13814 13817 1
13703 13818 13837 1
13704 13818 13819 1
13705 13818 13826 1
13706 13818 13820 1
13707 13819 13823 1
13708 13819 13822 1
13709 13819 13821 1
13710 13823 13824 1
13711 13823 13825 1
13712 13826 13828 1
13713 13826 13827 1
13714 13826 13829 1
13715 13830 13849 1
13716 13830 13831 1
13717 13830 13838 1
13718 13830 13832 1
13719 13831 13835 1
13720 13831 13834 1
13721 13831 13833 1
13722 13835 13837 1
13723 13835 13836 1
13724 13838 13840 1
13725 13838 13839 1
13726 13838 13841 1
13727 13842 13843 1
13728 13842 13861 1
13729 13842 13850 1
13730 13842 13844 1
13731 13843 13846 1
13732 13843 13847 1
13733 13843 13845 1
13734 13847 13848 1
13735 13847 13849 1
13736 13850 13852 1
13737 13850 13851 1
13738 13850 13853 1
13739 13854 13873 1
13740 13854 13855 1
13741 13854 13862 1
13742 13854 13856 1
13743 13855 13858 1
13744 13855 13857 1
13745 13855 13859 1
13746 13859 13860 1
13747 13859 13861 1
13748 13862 13863 1
13749 13862 13865 1
13750 13862 13864 1
13751 13866 13885 1
13752 13866 13867 1
13753 13866 13868 1
13754 13866 13874 1
13755 13867 13869 1
13756 13867 13870 1
13757 13867 13871 1
13758 13871 13872 1
13759 13871 13873 1
13760 13874 13877 1
13761 13874 13875 1
13762 13874 13876 1
13763 13878 13897 1
13764 13878 13879 1
13765 13878 13886 1
13766 13878 13880 1
13767 13879 13881 1
13768 13879 13882 1
13769 13879 13883 1
13770 13883 13884 1
13771 13883 13885 1
13772 13886 13887 1
13773 13886 13889 1
13774 13886 13888 1
13775 13890 13892 1
13776 13890 13909 1
13777 13890 13891 1
13778 13890 13898 1
13779 13891 13894 1
13780 13891 13893 1
13781 13891 13895 1
13782 13895 13896 1
13783 13895 13897 1
13784 13898 13899 1
13785 13898 13901 1
13786 13898 13900 1
13787 13902 13904 1
13788 13902 13921 1
13789 13902 13903 1
13790 13902 13910 1
13791 13903 13905 1
13792 13903 13907 1
13793 13903 13906 1
13794 13907 13908 1
13795 13907 13909 1
13796 13910 13913 1
13797 13910 13911 1
13798 13910 13912 1
13799 13914 13916 1
13800 13914 13915 1
13801 13914 13933 1
13802 13914 13922 1
13803 13915 13917 1
13804 13915 13918 1
13805 13915 13919 1
13806 13919 13921 1
13807 13919 13920 1
13808 13922 13925 1
13809 13922 13923 1
13810 13922 13924 1
13811 13926 13945 1
13812 13926 13928 1
13813 13926 13934 1
13814 13926 13927 1
13815 13927 13930 1
13816 13927 13931 1
13817 13927 13929 1
13818 13931 13933 1
13819 13931 13932 1
13820 13934 13935 1
13821 13934 13937 1
13822 13934 13936 1
13823 13938 13940 1
13824 13938 13939 1
13825 13938 13957 1
13826 13938 13946 1
13827 13939 13942 1
13828 13939 13943 1
13829 13939 13941 1
13830 13943 13945 1
13831 13943 13944 1
13832 13946 13947 1
13833 13946 13949 1
13834 13946 13948 1
13835 13950 13952 1
13836 13950 13958 1
13837 13950 13969 1
13838 13950 13951 1
13839 13951 13955 1
13840 13951 13953 1
13841 13951 13954 1
13842 13955 13957 1
13843 13955 13956 1
13844 13958 13959 1
13845 13958 13961 1
13846 13958 13960 1
13847 13962 13970 1
13848 13962 13964 1
13849 13962 13963 1
13850 13962 13981 1
13851 13963 13965 1
13852 13963 13966 1
13853 13963 13967 1
13854 13967 13968 1
13855 13967 13969 1
13856 13970 13972 1
13857 13970 13973 1
13858 13970 13971 1
13859 13974 13982 1
13860 13974 13976 1
13861 13974 13975 1
13862 13974 13993 1
13863 13975 13979 1
13864 13975 13978 1
13865 13975 13977 1
13866 13979 13981 1
13867 13979 13980 1
13868 13982 13984 1
13869 13982 13985 1
13870 13982 13983 1
13871 13986 13987 1
13872 13986 14005 1
13873 13986 13988 1
13874 13986 13994 1
13875 13987 13991 1
13876 13987 13989 1
13877 13987 13990 1
13878 13991 13992 1
13879 13991 13993 1
13880 13994 13996 1
13881 13994 13997 1
13882 13994 13995 1
13883 13998 14017 1
13884 13998 13999 1
13885 13998 14000 1
13886 13998 14006 1
13887 13999 14003 1
13888 13999 14001 1
13889 13999 14002 1
13890 14003 14005 1
13891 14003 14004 1
13892 14006 14008 1
13893 14006 14009 1
13894 14006 14007 1
13895 14010 14029 1
13896 14010 14011 1
13897 14010 14012 1
13898 14010 14018 1
13899 14011 14015 1
13900 14011 14013 1
13901 14011 14014 1
13902 14015 14016 1
13903 14015 14017 1
13904 14018 14021 1
13905 14018 14019 1
13906 14018 14020 1
13907 14022 14023 1
13908 14022 14041 1
13909 14022 14024 1
13910 14022 14030 1
13911 14023 14027 1
13912 14023 14025 1
13913 14023 14026 1
13914 14027 14029 1
13915 14027 14028 1
13916 14030 14031 1
13917 14030 14033 1
13918 14030 14032 1
13919 14034 14053 1
13920 14034 14035 1
13921 14034 14036 1
13922 14034 14042 1
13923 14035 14039 1
13924 14035 14037 1
13925 14035 14038 1
13926 14039 14040 1
13927 14039 14041 1
13928 14042 14043 1
13929 14042 14045 1
13930 14042 14044 1
13931 14046 14065 1
13932 14046 14047 1
13933 14046 14048 1
13934 14046 14054 1
13935 14047 14051 1
13936 14047 14049 1
13937 14047 14050 1
13938 14051 14052 1
13939 14051 14053 1
13940 14054 14057 1
13941 14054 14055 1
13942 14054 14056 1
13943 14058 14077 1
13944 14058 14060 1
13945 14058 14059 1
13946 14058 14066 1
13947 14059 14061 1
13948 14059 14062 1
13949 14059 14063 1
13950 14063 14064 1
13951 14063 14065 1
13952 14066 14067 1
13953 14066 14068 1
13954 14066 14069 1
13955 14070 14072 1
13956 14070 14089 1
13957 14070 14078 1
13958 14070 14071 1
13959 14071 14073 1
13960 14071 14074 1
13961 14071 14075 1
13962 14075 14076 1
13963 14075 14077 1
13964 14078 14081 1
13965 14078 14080 1
13966 14078 14079 1
13967 14082 14101 1
13968 14082 14090 1
13969 14082 14084 1
13970 14082 14083 1
13971 14083 14085 1
13972 14083 14086 1
13973 14083 14087 1
13974 14087 14088 1
13975 14087 14089 1
13976 14090 14093 1
13977 14090 14091 1
13978 14090 14092 1
13979 14094 14102 1
13980 14094 14095 1
13981 14094 14096 1
13982 14095 14098 1
13983 14095 14097 1
13984 14095 14099 1
13985 14099 14100 1
13986 14099 14101 1
13987 14102 14105 1
13988 14102 14103 1
13989 14102 14104 1
13990 14106 14107 1
13991 14107 14115 1
13992 14107 14109 1
13993 14107 14108 1
13994 14108 14111 1
13995 14108 14110 1
13996 14108 14112 1
13997 14112 14113 1
13998 14112 14114 1
13999 14115 14116 1
14000 14115 14118 1
14001 14115 14117 1
14002 14119 14121 1
14003 14119 14120 1
14004 14119 14128 1
14005 14120 14123 1
14006 14120 14122 1
14007 14120 14124 1
14008 14124 14126 1
14009 14124 14125 1
14010 14126 14127 1
14011 14128 14129 1
14012 14128 14130 1
14013 14128 14131 1
14014 14132 14134 1
14015 14132 14133 1
14016 14132 14151 1
14017 14132 14140 1
14018 14133 14136 1
14019 14133 14135 1
14020 14133 14137 1
14021 14137 14139 1
14022 14137 14138 1
14023 14140 14141 1
14024 14140 14142 1
14025 14140 14143 1
14026 14144 14146 1
14027 14144 14152 1
14028 14144 14145 1
14029 14144 14163 1
14030 14145 14147 1
14031 14145 14148 1
14032 14145 14149 1
14033 14149 14151 1
14034 14149 14150 1
14035 14152 14155 1
14036 14152 14153 1
14037 14152 14154 1
14038 14156 14164 1
14039 14156 14158 1
14040 14156 14157 1
14041 14156 14175 1
14042 14157 14160 1
14043 14157 14159 1
14044 14157 14161 1
14045 14161 14162 1
14046 14161 14163 1
14047 14164 14165 1
14048 14164 14167 1
14049 14164 14166 1
14050 14168 14170 1
14051 14168 14176 1
14052 14168 14169 1
14053 14168 14187 1
14054 14169 14172 1
14055 14169 14171 1
14056 14169 14173 1
14057 14173 14175 1
14058 14173 14174 1
14059 14176 14179 1
14060 14176 14177 1
14061 14176 14178 1
14062 14180 14182 1
14063 14180 14181 1
14064 14180 14188 1
14065 14180 14199 1
14066 14181 14183 1
14067 14181 14184 1
14068 14181 14185 1
14069 14185 14186 1
14070 14185 14187 1
14071 14188 14191 1
14072 14188 14189 1
14073 14188 14190 1
14074 14192 14194 1
14075 14192 14193 1
14076 14192 14200 1
14077 14192 14211 1
14078 14193 14195 1
14079 14193 14196 1
14080 14193 14197 1
14081 14197 14199 1
14082 14197 14198 1
14083 14200 14202 1
14084 14200 14203 1
14085 14200 14201 1
14086 14204 14205 1
14087 14204 14206 1
14088 14204 14212 1
14089 14204 14223 1
14090 14205 14207 1
14091 14205 14208 1
14092 14205 14209 1
14093 14209 14211 1
14094 14209 14210 1
14095 14212 14213 1
14096 14212 14214 1
14097 14212 14215 1
14098 14216 14218 1
14099 14216 14217 1
14100 14216 14224 1
14101 14216 14235 1
14102 14217 14219 1
14103 14217 14220 1
14104 14217 14221 1
14105 14221 14223 1
14106 14221 14222 1
14107 14224 14225 1
14108 14224 14226 1
14109 14224 14227 1
14110 14228 14230 1
14111 14228 14236 1
14112 14228 14247 1
14113 14228 14229 1
14114 14229 14233 1
14115 14229 14232 1
14116 14229 14231 1
14117 14233 14235 1
14118 14233 14234 1
14119 14236 14238 1
14120 14236 14239 1
14121 14236 14237 1
14122 14240 14242 1
14123 14240 14248 1
14124 14240 14259 1
14125 14240 14241 1
14126 14241 14245 1
14127 14241 14244 1
14128 14241 14243 1
14129 14245 14247 1
14130 14245 14246 1
14131 14248 14249 1
14132 14248 14250 1
14133 14248 14251 1
14134 14252 14254 1
14135 14252 14260 1
14136 14252 14253 1
14137 14252 14271 1
14138 14253 14256 1
14139 14253 14257 1
14140 14253 14255 1
14141 14257 14259 1
14142 14257 14258 1
14143 14260 14261 1
14144 14260 14262 1
14145 14260 14263 1
14146 14264 14266 1
14147 14264 14272 1
14148 14264 14283 1
14149 14264 14265 1
14150 14265 14269 1
14151 14265 14268 1
14152 14265 14267 1
14153 14269 14271 1
14154 14269 14270 1
14155 14272 14273 1
14156 14272 14274 1
14157 14272 14275 1
14158 14276 14295 1
14159 14276 14277 1
14160 14276 14278 1
14161 14276 14284 1
14162 14277 14279 1
14163 14277 14280 1
14164 14277 14281 1
14165 14281 14283 1
14166 14281 14282 1
14167 14284 14287 1
14168 14284 14286 1
14169 14284 14285 1
14170 14288 14296 1
14171 14288 14290 1
14172 14288 14307 1
14173 14288 14289 1
14174 14289 14291 1
14175 14289 14292 1
14176 14289 14293 1
14177 14293 14295 1
14178 14293 14294 1
14179 14296 14297 1
14180 14296 14299 1
14181 14296 14298 1
14182 14300 14319 1
14183 14300 14301 1
14184 14300 14302 1
14185 14300 14308 1
14186 14301 14303 1
14187 14301 14304 1
14188 14301 14305 1
14189 14305 14306 1
14190 14305 14307 1
14191 14308 14309 1
14192 14308 14310 1
14193 14308 14311 1
14194 14312 14331 1
14195 14312 14313 1
14196 14312 14314 1
14197 14312 14320 1
14198 14313 14317 1
14199 14313 14315 1
14200 14313 14316 1
14201 14317 14319 1
14202 14317 14318 1
14203 14320 14321 1
14204 14320 14322 1
14205 14320 14323 1
14206 14324 14343 1
14207 14324 14326 1
14208 14324 14325 1
14209 14324 14332 1
14210 14325 14327 1
14211 14325 14328 1
14212 14325 14329 1
14213 14329 14330 1
14214 14329 14331 1
14215 14332 14334 1
14216 14332 14333 1
14217 14332 14335 1
14218 14336 14337 1
14219 14336 14355 1
14220 14336 14338 1
14221 14336 14344 1
14222 14337 14341 1
14223 14337 14339 1
14224 14337 14340 1
14225 14341 14343 1
14226 14341 14342 1
14227 14344 14345 1
14228 14344 14346 1
14229 14344 14347 1
14230 14348 14367 1
14231 14348 14350 1
14232 14348 14349 1
14233 14348 14356 1
14234 14349 14352 1
14235 14349 14353 1
14236 14349 14351 1
14237 14353 14354 1
14238 14353 14355 1
14239 14356 14357 1
14240 14356 14358 1
14241 14356 14359 1
14242 14360 14379 1
14243 14360 14362 1
14244 14360 14368 1
14245 14360 14361 1
14246 14361 14365 1
14247 14361 14364 1
14248 14361 14363 1
14249 14365 14366 1
14250 14365 14367 1
14251 14368 14370 1
14252 14368 14369 1
14253 14368 14371 1
14254 14372 14391 1
14255 14372 14374 1
14256 14372 14380 1
14257 14372 14373 1
14258 14373 14376 1
14259 14373 14377 1
14260 14373 14375 1
14261 14377 14378 1
14262 14377 14379 1
14263 14380 14383 1
14264 14380 14381 1
14265 14380 14382 1
14266 14384 14403 1
14267 14384 14386 1
14268 14384 14392 1
14269 14384 14385 1
14270 14385 14388 1
14271 14385 14389 1
14272 14385 14387 1
14273 14389 14390 1
14274 14389 14391 1
14275 14392 14393 1
14276 14392 14394 1
14277 14392 14395 1
14278 14396 14415 1
14279 14396 14404 1
14280 14396 14398 1
14281 14396 14397 1
14282 14397 14399 1
14283 14397 14400 1
14284 14397 14401 1
14285 14401 14402 1
14286 14401 14403 1
14287 14404 14407 1
14288 14404 14406 1
14289 14404 14405 1
14290 14408 14427 1
14291 14408 14416 1
14292 14408 14409 1
14293 14408 14410 1
14294 14409 14411 1
14295 14409 14412 1
14296 14409 14413 1
14297 14413 14415 1
14298 14413 14414 1
14299 14416 14419 1
14300 14416 14418 1
14301 14416 14417 1
14302 14420 14421 1
14303 14420 14422 1
14304 14420 14428 1
14305 14420 14439 1
14306 14421 14423 1
14307 14421 14424 1
14308 14421 14425 1
14309 14425 14426 1
14310 14425 14427 1
14311 14428 14429 1
14312 14428 14431 1
14313 14428 14430 1
14314 14432 14433 1
14315 14432 14434 1
14316 14432 14451 1
14317 14432 14440 1
14318 14433 14435 1
14319 14433 14436 1
14320 14433 14437 1
14321 14437 14439 1
14322 14437 14438 1
14323 14440 14441 1
14324 14440 14443 1
14325 14440 14442 1
14326 14444 14446 1
14327 14444 14445 1
14328 14444 14452 1
14329 14444 14463 1
14330 14445 14447 1
14331 14445 14449 1
14332 14445 14448 1
14333 14449 14450 1
14334 14449 14451 1
14335 14452 14453 1
14336 14452 14454 1
14337 14452 14455 1
14338 14456 14458 1
14339 14456 14457 1
14340 14456 14464 1
14341 14457 14460 1
14342 14457 14459 1
14343 14457 14461 1
14344 14461 14463 1
14345 14461 14462 1
14346 14464 14465 1
14347 14464 14466 1
14348 14464 14467 1
14349 14468 14469 1
14350 14469 14471 1
14351 14469 14470 1
14352 14469 14477 1
14353 14470 14473 1
14354 14470 14472 1
14355 14470 14474 1
14356 14474 14476 1
14357 14474 14475 1
14358 14477 14478 1
14359 14477 14479 1
14360 14477 14480 1
14361 14481 14482 1
14362 14481 14490 1
14363 14481 14483 1
14364 14482 14486 1
14365 14482 14485 1
14366 14482 14484 1
14367 14486 14487 1
14368 14486 14488 1
14369 14488 14489 1
14370 14490 14493 1
14371 14490 14491 1
14372 14490 14492 1
14373 14494 14496 1
14374 14494 14495 1
14375 14494 14513 1
14376 14494 14502 1
14377 14495 14497 1
14378 14495 14498 1
14379 14495 14499 1
14380 14499 14501 1
14381 14499 14500 1
14382 14502 14503 1
14383 14502 14504 1
14384 14502 14505 1
14385 14506 14508 1
14386 14506 14507 1
14387 14506 14514 1
14388 14506 14525 1
14389 14507 14510 1
14390 14507 14511 1
14391 14507 14509 1
14392 14511 14513 1
14393 14511 14512 1
14394 14514 14517 1
14395 14514 14515 1
14396 14514 14516 1
14397 14518 14519 1
14398 14518 14520 1
14399 14518 14537 1
14400 14518 14526 1
14401 14519 14521 1
14402 14519 14522 1
14403 14519 14523 1
14404 14523 14524 1
14405 14523 14525 1
14406 14526 14527 1
14407 14526 14528 1
14408 14526 14529 1
14409 14530 14538 1
14410 14530 14531 1
14411 14530 14532 1
14412 14530 14549 1
14413 14531 14534 1
14414 14531 14533 1
14415 14531 14535 1
14416 14535 14536 1
14417 14535 14537 1
14418 14538 14539 1
14419 14538 14540 1
14420 14538 14541 1
14421 14542 14544 1
14422 14542 14543 1
14423 14542 14550 1
14424 14542 14561 1
14425 14543 14545 1
14426 14543 14546 1
14427 14543 14547 1
14428 14547 14548 1
14429 14547 14549 1
14430 14550 14553 1
14431 14550 14551 1
14432 14550 14552 1
14433 14554 14562 1
14434 14554 14555 1
14435 14554 14556 1
14436 14554 14573 1
14437 14555 14557 1
14438 14555 14558 1
14439 14555 14559 1
14440 14559 14560 1
14441 14559 14561 1
14442 14562 14564 1
14443 14562 14563 1
14444 14562 14565 1
14445 14566 14568 1
14446 14566 14574 1
14447 14566 14567 1
14448 14566 14585 1
14449 14567 14570 1
14450 14567 14571 1
14451 14567 14569 1
14452 14571 14573 1
14453 14571 14572 1
14454 14574 14575 1
14455 14574 14577 1
14456 14574 14576 1
14457 14578 14580 1
14458 14578 14586 1
14459 14578 14579 1
14460 14578 14597 1
14461 14579 14581 1
14462 14579 14582 1
14463 14579 14583 1
14464 14583 14584 1
14465 14583 14585 1
14466 14586 14587 1
14467 14586 14588 1
14468 14586 14589 1
14469 14590 14598 1
14470 14590 14592 1
14471 14590 14591 1
14472 14590 14609 1
14473 14591 14594 1
14474 14591 14595 1
14475 14591 14593 1
14476 14595 14597 1
14477 14595 14596 1
14478 14598 14601 1
14479 14598 14599 1
14480 14598 14600 1
14481 14602 14610 1
14482 14602 14604 1
14483 14602 14603 1
14484 14602 14621 1
14485 14603 14605 1
14486 14603 14606 1
14487 14603 14607 1
14488 14607 14609 1
14489 14607 14608 1
14490 14610 14612 1
14491 14610 14611 1
14492 14610 14613 1
14493 14614 14615 1
14494 14614 14633 1
14495 14614 14616 1
14496 14614 14622 1
14497 14615 14618 1
14498 14615 14617 1
14499 14615 14619 1
14500 14619 14620 1
14501 14619 14621 1
14502 14622 14623 1
14503 14622 14624 1
14504 14622 14625 1
14505 14626 14628 1
14506 14626 14634 1
14507 14626 14645 1
14508 14626 14627 1
14509 14627 14631 1
14510 14627 14630 1
14511 14627 14629 1
14512 14631 14633 1
14513 14631 14632 1
14514 14634 14636 1
14515 14634 14635 1
14516 14634 14637 1
14517 14638 14639 1
14518 14638 14657 1
14519 14638 14640 1
14520 14638 14646 1
14521 14639 14641 1
14522 14639 14642 1
14523 14639 14643 1
14524 14643 14644 1
14525 14643 14645 1
14526 14646 14648 1
14527 14646 14647 1
14528 14646 14649 1
14529 14650 14652 1
14530 14650 14658 1
14531 14650 14669 1
14532 14650 14651 1
14533 14651 14654 1
14534 14651 14655 1
14535 14651 14653 1
14536 14655 14657 1
14537 14655 14656 1
14538 14658 14660 1
14539 14658 14659 1
14540 14658 14661 1
14541 14662 14663 1
14542 14662 14664 1
14543 14662 14681 1
14544 14662 14670 1
14545 14663 14665 1
14546 14663 14666 1
14547 14663 14667 1
14548 14667 14668 1
14549 14667 14669 1
14550 14670 14671 1
14551 14670 14672 1
14552 14670 14673 1
14553 14674 14676 1
14554 14674 14682 1
14555 14674 14693 1
14556 14674 14675 1
14557 14675 14677 1
14558 14675 14678 1
14559 14675 14679 1
14560 14679 14681 1
14561 14679 14680 1
14562 14682 14685 1
14563 14682 14684 1
14564 14682 14683 1
14565 14686 14688 1
14566 14686 14705 1
14567 14686 14687 1
14568 14686 14694 1
14569 14687 14690 1
14570 14687 14691 1
14571 14687 14689 1
14572 14691 14692 1
14573 14691 14693 1
14574 14694 14697 1
14575 14694 14695 1
14576 14694 14696 1
14577 14698 14699 1
14578 14698 14700 1
14579 14698 14717 1
14580 14698 14706 1
14581 14699 14701 1
14582 14699 14703 1
14583 14699 14702 1
14584 14703 14705 1
14585 14703 14704 1
14586 14706 14707 1
14587 14706 14709 1
14588 14706 14708 1
14589 14710 14712 1
14590 14710 14729 1
14591 14710 14711 1
14592 14710 14718 1
14593 14711 14714 1
14594 14711 14713 1
14595 14711 14715 1
14596 14715 14716 1
14597 14715 14717 1
14598 14718 14719 1
14599 14718 14721 1
14600 14718 14720 1
14601 14722 14724 1
14602 14722 14723 1
14603 14722 14741 1
14604 14722 14730 1
14605 14723 14725 1
14606 14723 14727 1
14607 14723 14726 1
14608 14727 14729 1
14609 14727 14728 1
14610 14730 14732 1
14611 14730 14733 1
14612 14730 14731 1
14613 14734 14742 1
14614 14734 14753 1
14615 14734 14736 1
14616 14734 14735 1
14617 14735 14737 1
14618 14735 14738 1
14619 14735 14739 1
14620 14739 14740 1
14621 14739 14741 1
14622 14742 14744 1
14623 14742 14745 1
14624 14742 14743 1
14625 14746 14748 1
14626 14746 14765 1
14627 14746 14754 1
14628 14746 14747 1
14629 14747 14750 1
14630 14747 14749 1
14631 14747 14751 1
14632 14751 14753 1
14633 14751 14752 1
14634 14754 14755 1
14635 14754 14756 1
14636 14754 14757 1
14637 14758 14760 1
14638 14758 14759 1
14639 14758 14766 1
14640 14758 14777 1
14641 14759 14761 1
14642 14759 14763 1
14643 14759 14762 1
14644 14763 14764 1
14645 14763 14765 1
14646 14766 14767 1
14647 14766 14768 1
14648 14766 14769 1
14649 14770 14772 1
14650 14770 14778 1
14651 14770 14789 1
14652 14770 14771 1
14653 14771 14774 1
14654 14771 14773 1
14655 14771 14775 1
14656 14775 14777 1
14657 14775 14776 1
14658 14778 14781 1
14659 14778 14780 1
14660 14778 14779 1
14661 14782 14784 1
14662 14782 14783 1
14663 14782 14790 1
14664 14782 14801 1
14665 14783 14787 1
14666 14783 14785 1
14667 14783 14786 1
14668 14787 14788 1
14669 14787 14789 1
14670 14790 14791 1
14671 14790 14792 1
14672 14790 14793 1
14673 14794 14802 1
14674 14794 14813 1
14675 14794 14795 1
14676 14794 14796 1
14677 14795 14798 1
14678 14795 14797 1
14679 14795 14799 1
14680 14799 14801 1
14681 14799 14800 1
14682 14802 14803 1
14683 14802 14805 1
14684 14802 14804 1
14685 14806 14808 1
14686 14806 14807 1
14687 14806 14814 1
14688 14806 14825 1
14689 14807 14811 1
14690 14807 14809 1
14691 14807 14810 1
14692 14811 14812 1
14693 14811 14813 1
14694 14814 14815 1
14695 14814 14816 1
14696 14814 14817 1
14697 14818 14826 1
14698 14818 14819 1
14699 14818 14820 1
14700 14819 14821 1
14701 14819 14822 1
14702 14819 14823 1
14703 14823 14825 1
14704 14823 14824 1
14705 14826 14828 1
14706 14826 14829 1
14707 14826 14827 1
14708 14830 14831 1
14709 14831 14832 1
14710 14831 14839 1
14711 14831 14833 1
14712 14832 14836 1
14713 14832 14834 1
14714 14832 14835 1
14715 14836 14837 1
14716 14836 14838 1
14717 14839 14842 1
14718 14839 14840 1
14719 14839 14841 1
14720 14843 14844 1
14721 14843 14845 1
14722 14843 14852 1
14723 14844 14847 1
14724 14844 14846 1
14725 14844 14848 1
14726 14848 14850 1
14727 14848 14849 1
14728 14850 14851 1
14729 14852 14853 1
14730 14852 14855 1
14731 14852 14854 1
14732 14856 14858 1
14733 14856 14857 1
14734 14856 14864 1
14735 14856 14875 1
14736 14857 14861 1
14737 14857 14860 1
14738 14857 14859 1
14739 14861 14862 1
14740 14861 14863 1
14741 14864 14867 1
14742 14864 14865 1
14743 14864 14866 1
14744 14868 14870 1
14745 14868 14869 1
14746 14868 14876 1
14747 14868 14887 1
14748 14869 14871 1
14749 14869 14872 1
14750 14869 14873 1
14751 14873 14874 1
14752 14873 14875 1
14753 14876 14878 1
14754 14876 14877 1
14755 14876 14879 1
14756 14880 14881 1
14757 14880 14882 1
14758 14880 14888 1
14759 14880 14899 1
14760 14881 14884 1
14761 14881 14885 1
14762 14881 14883 1
14763 14885 14886 1
14764 14885 14887 1
14765 14888 14889 1
14766 14888 14891 1
14767 14888 14890 1
14768 14892 14894 1
14769 14892 14900 1
14770 14892 14893 1
14771 14892 14911 1
14772 14893 14896 1
14773 14893 14895 1
14774 14893 14897 1
14775 14897 14898 1
14776 14897 14899 1
14777 14900 14901 1
14778 14900 14903 1
14779 14900 14902 1
14780 14904 14906 1
14781 14904 14905 1
14782 14904 14912 1
14783 14904 14923 1
14784 14905 14907 1
14785 14905 14908 1
14786 14905 14909 1
14787 14909 14910 1
14788 14909 14911 1
14789 14912 14914 1
14790 14912 14913 1
14791 14912 14915 1
14792 14916 14918 1
14793 14916 14924 1
14794 14916 14917 1
14795 14916 14935 1
14796 14917 14919 1
14797 14917 14920 1
14798 14917 14921 1
14799 14921 14923 1
14800 14921 14922 1
14801 14924 14927 1
14802 14924 14925 1
14803 14924 14926 1
14804 14928 14930 1
14805 14928 14929 1
14806 14928 14936 1
14807 14928 14947 1
14808 14929 14932 1
14809 14929 14931 1
14810 14929 14933 1
14811 14933 14934 1
14812 14933 14935 1
14813 14936 14937 1
14814 14936 14938 1
14815 14936 14939 1
14816 14940 14942 1
14817 14940 14948 1
14818 14940 14959 1
14819 14940 14941 1
14820 14941 14945 1
14821 14941 14944 1
14822 14941 14943 1
14823 14945 14947 1
14824 14945 14946 1
14825 14948 14951 1
14826 14948 14949 1
14827 14948 14950 1
14828 14952 14960 1
14829 14952 14954 1
14830 14952 14953 1
14831 14952 14971 1
14832 14953 14955 1
14833 14953 14956 1
14834 14953 14957 1
14835 14957 14958 1
14836 14957 14959 1
14837 14960 14962 1
14838 14960 14961 1
14839 14960 14963 1
14840 14964 14972 1
14841 14964 14966 1
14842 14964 14983 1
14843 14964 14965 1
14844 14965 14968 1
14845 14965 14969 1
14846 14965 14967 1
14847 14969 14971 1
14848 14969 14970 1
14849 14972 14974 1
14850 14972 14975 1
14851 14972 14973 1
14852 14976 14977 1
14853 14976 14978 1
14854 14976 14984 1
14855 14976 14995 1
14856 14977 14979 1
14857 14977 14980 1
14858 14977 14981 1
14859 14981 14983 1
14860 14981 14982 1
14861 14984 14986 1
14862 14984 14985 1
14863 14984 14987 1
14864 14988 14989 1
14865 14988 15007 1
14866 14988 14996 1
14867 14988 14990 1
14868 14989 14991 1
14869 14989 14992 1
14870 14989 14993 1
14871 14993 14994 1
14872 14993 14995 1
14873 14996 14997 1
14874 14996 14998 1
14875 14996 14999 1
14876 15000 15002 1
14877 15000 15008 1
14878 15000 15001 1
14879 15000 15019 1
14880 15001 15004 1
14881 15001 15005 1
14882 15001 15003 1
14883 15005 15007 1
14884 15005 15006 1
14885 15008 15010 1
14886 15008 15011 1
14887 15008 15009 1
14888 15012 15013 1
14889 15012 15014 1
14890 15012 15031 1
14891 15012 15020 1
14892 15013 15015 1
14893 15013 15017 1
14894 15013 15016 1
14895 15017 15018 1
14896 15017 15019 1
14897 15020 15021 1
14898 15020 15022 1
14899 15020 15023 1
14900 15024 15026 1
14901 15024 15032 1
14902 15024 15025 1
14903 15024 15043 1
14904 15025 15028 1
14905 15025 15027 1
14906 15025 15029 1
14907 15029 15031 1
14908 15029 15030 1
14909 15032 15034 1
14910 15032 15035 1
14911 15032 15033 1
14912 15036 15038 1
14913 15036 15037 1
14914 15036 15055 1
14915 15036 15044 1
14916 15037 15039 1
14917 15037 15041 1
14918 15037 15040 1
14919 15041 15042 1
14920 15041 15043 1
14921 15044 15047 1
14922 15044 15045 1
14923 15044 15046 1
14924 15048 15050 1
14925 15048 15049 1
14926 15048 15067 1
14927 15048 15056 1
14928 15049 15051 1
14929 15049 15053 1
14930 15049 15052 1
14931 15053 15055 1
14932 15053 15054 1
14933 15056 15059 1
14934 15056 15058 1
14935 15056 15057 1
14936 15060 15062 1
14937 15060 15079 1
14938 15060 15068 1
14939 15060 15061 1
14940 15061 15064 1
14941 15061 15063 1
14942 15061 15065 1
14943 15065 15066 1
14944 15065 15067 1
14945 15068 15069 1
14946 15068 15071 1
14947 15068 15070 1
14948 15072 15073 1
14949 15072 15074 1
14950 15072 15091 1
14951 15072 15080 1
14952 15073 15075 1
14953 15073 15077 1
14954 15073 15076 1
14955 15077 15079 1
14956 15077 15078 1
14957 15080 15081 1
14958 15080 15083 1
14959 15080 15082 1
14960 15084 15086 1
14961 15084 15092 1
14962 15084 15103 1
14963 15084 15085 1
14964 15085 15087 1
14965 15085 15088 1
14966 15085 15089 1
14967 15089 15090 1
14968 15089 15091 1
14969 15092 15095 1
14970 15092 15094 1
14971 15092 15093 1
14972 15096 15098 1
14973 15096 15115 1
14974 15096 15097 1
14975 15096 15104 1
14976 15097 15099 1
14977 15097 15100 1
14978 15097 15101 1
14979 15101 15103 1
14980 15101 15102 1
14981 15104 15106 1
14982 15104 15107 1
14983 15104 15105 1
14984 15108 15116 1
14985 15108 15127 1
14986 15108 15109 1
14987 15108 15110 1
14988 15109 15111 1
14989 15109 15113 1
14990 15109 15112 1
14991 15113 15114 1
14992 15113 15115 1
14993 15116 15118 1
14994 15116 15119 1
14995 15116 15117 1
14996 15120 15122 1
14997 15120 15139 1
14998 15120 15121 1
14999 15120 15128 1
15000 15121 15123 1
15001 15121 15124 1
15002 15121 15125 1
15003 15125 15127 1
15004 15125 15126 1
15005 15128 15129 1
15006 15128 15130 1
15007 15128 15131 1
15008 15132 15134 1
15009 15132 15133 1
15010 15132 15151 1
15011 15132 15140 1
15012 15133 15137 1
15013 15133 15135 1
15014 15133 15136 1
15015 15137 15138 1
15016 15137 15139 1
15017 15140 15142 1
15018 15140 15141 1
15019 15140 15143 1
15020 15144 15152 1
15021 15144 15163 1
15022 15144 15146 1
15023 15144 15145 1
15024 15145 15148 1
15025 15145 15147 1
15026 15145 15149 1
15027 15149 15151 1
15028 15149 15150 1
15029 15152 15155 1
15030 15152 15153 1
15031 15152 15154 1
15032 15156 15158 1
15033 15156 15157 1
15034 15156 15175 1
15035 15156 15164 1
15036 15157 15161 1
15037 15157 15159 1
15038 15157 15160 1
15039 15161 15162 1
15040 15161 15163 1
15041 15164 15165 1
15042 15164 15166 1
15043 15164 15167 1
15044 15168 15176 1
15045 15168 15187 1
15046 15168 15170 1
15047 15168 15169 1
15048 15169 15171 1
15049 15169 15172 1
15050 15169 15173 1
15051 15173 15175 1
15052 15173 15174 1
15053 15176 15177 1
15054 15176 15178 1
15055 15176 15179 1
15056 15180 15181 1
15057 15180 15182 1
15058 15180 15188 1
15059 15181 15185 1
15060 15181 15183 1
15061 15181 15184 1
15062 15185 15186 1
15063 15185 15187 1
15064 15188 15190 1
15065 15188 15189 1
15066 15188 15191 1
15067 15192 15193 1
15068 15193 15194 1
15069 15193 15195 1
15070 15193 15201 1
15071 15194 15196 1
15072 15194 15197 1
15073 15194 15198 1
15074 15198 15200 1
15075 15198 15199 1
15076 15201 15202 1
15077 15201 15203 1
15078 15201 15204 1
15079 15205 15206 1
15080 15205 15214 1
15081 15205 15207 1
15082 15206 15210 1
15083 15206 15209 1
15084 15206 15208 1
15085 15210 15211 1
15086 15210 15212 1
15087 15212 15213 1
15088 15214 15217 1
15089 15214 15215 1
15090 15214 15216 1
15091 15218 15237 1
15092 15218 15226 1
15093 15218 15220 1
15094 15218 15219 1
15095 15219 15221 1
15096 15219 15222 1
15097 15219 15223 1
15098 15223 15224 1
15099 15223 15225 1
15100 15226 15227 1
15101 15226 15228 1
15102 15226 15229 1
15103 15230 15249 1
15104 15230 15231 1
15105 15230 15238 1
15106 15230 15232 1
15107 15231 15235 1
15108 15231 15233 1
15109 15231 15234 1
15110 15235 15236 1
15111 15235 15237 1
15112 15238 15241 1
15113 15238 15239 1
15114 15238 15240 1
15115 15242 15261 1
15116 15242 15250 1
15117 15242 15243 1
15118 15242 15244 1
15119 15243 15245 1
15120 15243 15246 1
15121 15243 15247 1
15122 15247 15248 1
15123 15247 15249 1
15124 15250 15251 1
15125 15250 15252 1
15126 15250 15253 1
15127 15254 15262 1
15128 15254 15255 1
15129 15254 15256 1
15130 15254 15273 1
15131 15255 15258 1
15132 15255 15259 1
15133 15255 15257 1
15134 15259 15261 1
15135 15259 15260 1
15136 15262 15263 1
15137 15262 15264 1
15138 15262 15265 1
15139 15266 15268 1
15140 15266 15267 1
15141 15266 15274 1
15142 15266 15285 1
15143 15267 15269 1
15144 15267 15270 1
15145 15267 15271 1
15146 15271 15273 1
15147 15271 15272 1
15148 15274 15277 1
15149 15274 15275 1
15150 15274 15276 1
15151 15278 15286 1
15152 15278 15279 1
15153 15278 15280 1
15154 15278 15297 1
15155 15279 15282 1
15156 15279 15281 1
15157 15279 15283 1
15158 15283 15284 1
15159 15283 15285 1
15160 15286 15288 1
15161 15286 15287 1
15162 15286 15289 1
15163 15290 15309 1
15164 15290 15291 1
15165 15290 15292 1
15166 15290 15298 1
15167 15291 15294 1
15168 15291 15295 1
15169 15291 15293 1
15170 15295 15297 1
15171 15295 15296 1
15172 15298 15299 1
15173 15298 15301 1
15174 15298 15300 1
15175 15302 15310 1
15176 15302 15303 1
15177 15302 15304 1
15178 15302 15321 1
15179 15303 15305 1
15180 15303 15306 1
15181 15303 15307 1
15182 15307 15308 1
15183 15307 15309 1
15184 15310 15312 1
15185 15310 15311 1
15186 15310 15313 1
15187 15314 15333 1
15188 15314 15315 1
15189 15314 15316 1
15190 15314 15322 1
15191 15315 15318 1
15192 15315 15319 1
15193 15315 15317 1
15194 15319 15321 1
15195 15319 15320 1
15196 15322 15325 1
15197 15322 15323 1
15198 15322 15324 1
15199 15326 15334 1
15200 15326 15328 1
15201 15326 15327 1
15202 15326 15345 1
15203 15327 15329 1
15204 15327 15330 1
15205 15327 15331 1
15206 15331 15332 1
15207 15331 15333 1
15208 15334 15336 1
15209 15334 15335 1
15210 15334 15337 1
15211 15338 15339 1
15212 15338 15357 1
15213 15338 15340 1
15214 15338 15346 1
15215 15339 15342 1
15216 15339 15341 1
15217 15339 15343 1
15218 15343 15344 1
15219 15343 15345 1
15220 15346 15347 1
15221 15346 15349 1
15222 15346 15348 1
15223 15350 15352 1
15224 15350 15351 1
15225 15350 15358 1
15226 15350 15369 1
15227 15351 15353 1
15228 15351 15355 1
15229 15351 15354 1
15230 15355 15357 1
15231 15355 15356 1
15232 15358 15360 1
15233 15358 15359 1
15234 15358 15361 1
15235 15362 15364 1
15236 15362 15363 1
15237 15362 15381 1
15238 15362 15370 1
15239 15363 15365 1
15240 15363 15366 1
15241 15363 15367 1
15242 15367 15368 1
15243 15367 15369 1
15244 15370 15372 1
15245 15370 15371 1
15246 15370 15373 1
15247 15374 15376 1
15248 15374 15382 1
15249 15374 15393 1
15250 15374 15375 1
15251 15375 15378 1
15252 15375 15379 1
15253 15375 15377 1
15254 15379 15381 1
15255 15379 15380 1
15256 15382 15384 1
15257 15382 15383 1
15258 15382 15385 1
15259 15386 15387 1
15260 15386 15388 1
15261 15386 15405 1
15262 15386 15394 1
15263 15387 15389 1
15264 15387 15390 1
15265 15387 15391 1
15266 15391 15392 1
15267 15391 15393 1
15268 15394 15395 1
15269 15394 15396 1
15270 15394 15397 1
15271 15398 15400 1
15272 15398 15406 1
15273 15398 15417 1
15274 15398 15399 1
15275 15399 15401 1
15276 15399 15402 1
15277 15399 15403 1
15278 15403 15405 1
15279 15403 15404 1
15280 15406 15408 1
15281 15406 15407 1
15282 15406 15409 1
15283 15410 15412 1
15284 15410 15429 1
15285 15410 15411 1
15286 15410 15418 1
15287 15411 15413 1
15288 15411 15414 1
15289 15411 15415 1
15290 15415 15416 1
15291 15415 15417 1
15292 15418 15421 1
15293 15418 15419 1
15294 15418 15420 1
15295 15422 15423 1
15296 15422 15424 1
15297 15422 15441 1
15298 15422 15430 1
15299 15423 15425 1
15300 15423 15427 1
15301 15423 15426 1
15302 15427 15429 1
15303 15427 15428 1
15304 15430 15433 1
15305 15430 15432 1
15306 15430 15431 1
15307 15434 15436 1
15308 15434 15442 1
15309 15434 15453 1
15310 15434 15435 1
15311 15435 15438 1
15312 15435 15437 1
15313 15435 15439 1
15314 15439 15440 1
15315 15439 15441 1
15316 15442 15445 1
15317 15442 15444 1
15318 15442 15443 1
15319 15446 15448 1
15320 15446 15447 1
15321 15446 15465 1
15322 15446 15454 1
15323 15447 15449 1
15324 15447 15451 1
15325 15447 15450 1
15326 15451 15453 1
15327 15451 15452 1
15328 15454 15456 1
15329 15454 15457 1
15330 15454 15455 1
15331 15458 15460 1
15332 15458 15459 1
15333 15458 15466 1
15334 15458 15477 1
15335 15459 15461 1
15336 15459 15463 1
15337 15459 15462 1
15338 15463 15464 1
15339 15463 15465 1
15340 15466 15468 1
15341 15466 15469 1
15342 15466 15467 1
15343 15470 15471 1
15344 15470 15472 1
15345 15470 15489 1
15346 15470 15478 1
15347 15471 15475 1
15348 15471 15474 1
15349 15471 15473 1
15350 15475 15477 1
15351 15475 15476 1
15352 15478 15479 1
15353 15478 15480 1
15354 15478 15481 1
15355 15482 15484 1
15356 15482 15483 1
15357 15482 15490 1
15358 15482 15501 1
15359 15483 15485 1
15360 15483 15487 1
15361 15483 15486 1
15362 15487 15488 1
15363 15487 15489 1
15364 15490 15491 1
15365 15490 15492 1
15366 15490 15493 1
15367 15494 15496 1
15368 15494 15513 1
15369 15494 15502 1
15370 15494 15495 1
15371 15495 15498 1
15372 15495 15497 1
15373 15495 15499 1
15374 15499 15501 1
15375 15499 15500 1
15376 15502 15504 1
15377 15502 15503 1
15378 15502 15505 1
15379 15506 15508 1
15380 15506 15507 1
15381 15506 15525 1
15382 15506 15514 1
15383 15507 15511 1
15384 15507 15509 1
15385 15507 15510 1
15386 15511 15512 1
15387 15511 15513 1
15388 15514 15515 1
15389 15514 15516 1
15390 15514 15517 1
15391 15518 15526 1
15392 15518 15537 1
15393 15518 15519 1
15394 15518 15520 1
15395 15519 15522 1
15396 15519 15521 1
15397 15519 15523 1
15398 15523 15524 1
15399 15523 15525 1
15400 15526 15529 1
15401 15526 15527 1
15402 15526 15528 1
15403 15530 15532 1
15404 15530 15538 1
15405 15530 15549 1
15406 15530 15531 1
15407 15531 15535 1
15408 15531 15533 1
15409 15531 15534 1
15410 15535 15536 1
15411 15535 15537 1
15412 15538 15541 1
15413 15538 15539 1
15414 15538 15540 1
15415 15542 15550 1
15416 15542 15543 1
15417 15542 15544 1
15418 15543 15545 1
15419 15543 15546 1
15420 15543 15547 1
15421 15547 15548 1
15422 15547 15549 1
15423 15550 15552 1
15424 15550 15553 1
15425 15550 15551 1
15426 15554 15555 1
15427 15555 15556 1
15428 15555 15563 1
15429 15555 15557 1
15430 15556 15560 1
15431 15556 15558 1
15432 15556 15559 1
15433 15560 15561 1
15434 15560 15562 1
15435 15563 15564 1
15436 15563 15566 1
15437 15563 15565 1
15438 15567 15568 1
15439 15567 15569 1
15440 15567 15576 1
15441 15568 15571 1
15442 15568 15570 1
15443 15568 15572 1
15444 15572 15574 1
15445 15572 15573 1
15446 15574 15575 1
15447 15576 15577 1
15448 15576 15578 1
15449 15576 15579 1
15450 15580 15582 1
15451 15580 15581 1
15452 15580 15588 1
15453 15580 15599 1
15454 15581 15583 1
15455 15581 15584 1
15456 15581 15585 1
15457 15585 15587 1
15458 15585 15586 1
15459 15588 15591 1
15460 15588 15589 1
15461 15588 15590 1
15462 15592 15594 1
15463 15592 15593 1
15464 15592 15600 1
15465 15592 15611 1
15466 15593 15595 1
15467 15593 15596 1
15468 15593 15597 1
15469 15597 15598 1
15470 15597 15599 1
15471 15600 15602 1
15472 15600 15601 1
15473 15600 15603 1
15474 15604 15605 1
15475 15604 15606 1
15476 15604 15612 1
15477 15604 15623 1
15478 15605 15607 1
15479 15605 15608 1
15480 15605 15609 1
15481 15609 15610 1
15482 15609 15611 1
15483 15612 15613 1
15484 15612 15615 1
15485 15612 15614 1
15486 15616 15618 1
15487 15616 15624 1
15488 15616 15617 1
15489 15616 15635 1
15490 15617 15620 1
15491 15617 15619 1
15492 15617 15621 1
15493 15621 15622 1
15494 15621 15623 1
15495 15624 15625 1
15496 15624 15627 1
15497 15624 15626 1
15498 15628 15630 1
15499 15628 15629 1
15500 15628 15636 1
15501 15628 15647 1
15502 15629 15631 1
15503 15629 15632 1
15504 15629 15633 1
15505 15633 15634 1
15506 15633 15635 1
15507 15636 15638 1
15508 15636 15639 1
15509 15636 15637 1
15510 15640 15642 1
15511 15640 15648 1
15512 15640 15641 1
15513 15640 15659 1
15514 15641 15643 1
15515 15641 15644 1
15516 15641 15645 1
15517 15645 15646 1
15518 15645 15647 1
15519 15648 15651 1
15520 15648 15649 1
15521 15648 15650 1
15522 15652 15654 1
15523 15652 15653 1
15524 15652 15660 1
15525 15652 15671 1
15526 15653 15656 1
15527 15653 15655 1
15528 15653 15657 1
15529 15657 15658 1
15530 15657 15659 1
15531 15660 15661 1
15532 15660 15662 1
15533 15660 15663 1
15534 15664 15666 1
15535 15664 15672 1
15536 15664 15665 1
15537 15664 15683 1
15538 15665 15667 1
15539 15665 15669 1
15540 15665 15668 1
15541 15669 15671 1
15542 15669 15670 1
15543 15672 15675 1
15544 15672 15673 1
15545 15672 15674 1
15546 15676 15684 1
15547 15676 15678 1
15548 15676 15677 1
15549 15676 15695 1
15550 15677 15679 1
15551 15677 15680 1
15552 15677 15681 1
15553 15681 15683 1
15554 15681 15682 1
15555 15684 15686 1
15556 15684 15685 1
15557 15684 15687 1
15558 15688 15696 1
15559 15688 15690 1
15560 15688 15707 1
15561 15688 15689 1
15562 15689 15692 1
15563 15689 15693 1
15564 15689 15691 1
15565 15693 15695 1
15566 15693 15694 1
15567 15696 15698 1
15568 15696 15699 1
15569 15696 15697 1
15570 15700 15702 1
15571 15700 15708 1
15572 15700 15701 1
15573 15700 15719 1
15574 15701 15704 1
15575 15701 15705 1
15576 15701 15703 1
15577 15705 15707 1
15578 15705 15706 1
15579 15708 15709 1
15580 15708 15710 1
15581 15708 15711 1
15582 15712 15713 1
15583 15712 15731 1
15584 15712 15720 1
15585 15712 15714 1
15586 15713 15715 1
15587 15713 15717 1
15588 15713 15716 1
15589 15717 15719 1
15590 15717 15718 1
15591 15720 15721 1
15592 15720 15722 1
15593 15720 15723 1
15594 15724 15726 1
15595 15724 15732 1
15596 15724 15725 1
15597 15724 15743 1
15598 15725 15728 1
15599 15725 15729 1
15600 15725 15727 1
15601 15729 15731 1
15602 15729 15730 1
15603 15732 15734 1
15604 15732 15735 1
15605 15732 15733 1
15606 15736 15737 1
15607 15736 15755 1
15608 15736 15744 1
15609 15736 15738 1
15610 15737 15739 1
15611 15737 15741 1
15612 15737 15740 1
15613 15741 15742 1
15614 15741 15743 1
15615 15744 15745 1
15616 15744 15746 1
15617 15744 15747 1
15618 15748 15749 1
15619 15748 15767 1
15620 15748 15750 1
15621 15748 15756 1
15622 15749 15752 1
15623 15749 15751 1
15624 15749 15753 1
15625 15753 15755 1
15626 15753 15754 1
15627 15756 15758 1
15628 15756 15759 1
15629 15756 15757 1
15630 15760 15762 1
15631 15760 15761 1
15632 15760 15779 1
15633 15760 15768 1
15634 15761 15763 1
15635 15761 15765 1
15636 15761 15764 1
15637 15765 15766 1
15638 15765 15767 1
15639 15768 15771 1
15640 15768 15769 1
15641 15768 15770 1
15642 15772 15774 1
15643 15772 15773 1
15644 15772 15791 1
15645 15772 15780 1
15646 15773 15775 1
15647 15773 15777 1
15648 15773 15776 1
15649 15777 15779 1
15650 15777 15778 1
15651 15780 15783 1
15652 15780 15781 1
15653 15780 15782 1
15654 15784 15786 1
15655 15784 15803 1
15656 15784 15792 1
15657 15784 15785 1
15658 15785 15788 1
15659 15785 15789 1
15660 15785 15787 1
15661 15789 15790 1
15662 15789 15791 1
15663 15792 15793 1
15664 15792 15795 1
15665 15792 15794 1
15666 15796 15797 1
15667 15796 15798 1
15668 15796 15815 1
15669 15796 15804 1
15670 15797 15799 1
15671 15797 15801 1
15672 15797 15800 1
15673 15801 15803 1
15674 15801 15802 1
15675 15804 15805 1
15676 15804 15807 1
15677 15804 15806 1
15678 15808 15810 1
15679 15808 15827 1
15680 15808 15816 1
15681 15808 15809 1
15682 15809 15811 1
15683 15809 15812 1
15684 15809 15813 1
15685 15813 15814 1
15686 15813 15815 1
15687 15816 15818 1
15688 15816 15819 1
15689 15816 15817 1
15690 15820 15822 1
15691 15820 15839 1
15692 15820 15821 1
15693 15820 15828 1
15694 15821 15823 1
15695 15821 15824 1
15696 15821 15825 1
15697 15825 15827 1
15698 15825 15826 1
15699 15828 15830 1
15700 15828 15831 1
15701 15828 15829 1
15702 15832 15840 1
15703 15832 15851 1
15704 15832 15833 1
15705 15832 15834 1
15706 15833 15836 1
15707 15833 15835 1
15708 15833 15837 1
15709 15837 15838 1
15710 15837 15839 1
15711 15840 15843 1
15712 15840 15841 1
15713 15840 15842 1
15714 15844 15846 1
15715 15844 15852 1
15716 15844 15863 1
15717 15844 15845 1
15718 15845 15847 1
15719 15845 15848 1
15720 15845 15849 1
15721 15849 15851 1
15722 15849 15850 1
15723 15852 15855 1
15724 15852 15853 1
15725 15852 15854 1
15726 15856 15858 1
15727 15856 15857 1
15728 15856 15875 1
15729 15856 15864 1
15730 15857 15861 1
15731 15857 15859 1
15732 15857 15860 1
15733 15861 15862 1
15734 15861 15863 1
15735 15864 15866 1
15736 15864 15865 1
15737 15864 15867 1
15738 15868 15876 1
15739 15868 15887 1
15740 15868 15870 1
15741 15868 15869 1
15742 15869 15872 1
15743 15869 15871 1
15744 15869 15873 1
15745 15873 15875 1
15746 15873 15874 1
15747 15876 15878 1
15748 15876 15879 1
15749 15876 15877 1
15750 15880 15882 1
15751 15880 15881 1
15752 15880 15899 1
15753 15880 15888 1
15754 15881 15885 1
15755 15881 15883 1
15756 15881 15884 1
15757 15885 15886 1
15758 15885 15887 1
15759 15888 15889 1
15760 15888 15890 1
15761 15888 15891 1
15762 15892 15894 1
15763 15892 15893 1
15764 15892 15900 1
15765 15892 15911 1
15766 15893 15895 1
15767 15893 15896 1
15768 15893 15897 1
15769 15897 15899 1
15770 15897 15898 1
15771 15900 15901 1
15772 15900 15902 1
15773 15900 15903 1
15774 15904 15905 1
15775 15904 15906 1
15776 15904 15912 1
15777 15905 15907 1
15778 15905 15908 1
15779 15905 15909 1
15780 15909 15910 1
15781 15909 15911 1
15782 15912 15914 1
15783 15912 15913 1
15784 15912 15915 1
15785 15916 15917 1
15786 15917 15918 1
15787 15917 15919 1
15788 15917 15925 1
15789 15918 15920 1
15790 15918 15921 1
15791 15918 15922 1
15792 15922 15924 1
15793 15922 15923 1
15794 15925 15926 1
15795 15925 15927 1
15796 15925 15928 1
15797 15929 15930 1
15798 15929 15938 1
15799 15929 15931 1
15800 15930 15934 1
15801 15930 15933 1
15802 15930 15932 1
15803 15934 15935 1
15804 15934 15936 1
15805 15936 15937 1
15806 15938 15939 1
15807 15938 15941 1
15808 15938 15940 1
15809 15942 15961 1
15810 15942 15950 1
15811 15942 15944 1
15812 15942 15943 1
15813 15943 15945 1
15814 15943 15946 1
15815 15943 15947 1
15816 15947 15948 1
15817 15947 15949 1
15818 15950 15951 1
15819 15950 15952 1
15820 15950 15953 1
15821 15954 15973 1
15822 15954 15955 1
15823 15954 15962 1
15824 15954 15956 1
15825 15955 15959 1
15826 15955 15957 1
15827 15955 15958 1
15828 15959 15960 1
15829 15959 15961 1
15830 15962 15964 1
15831 15962 15965 1
15832 15962 15963 1
15833 15966 15985 1
15834 15966 15974 1
15835 15966 15967 1
15836 15966 15968 1
15837 15967 15969 1
15838 15967 15970 1
15839 15967 15971 1
15840 15971 15972 1
15841 15971 15973 1
15842 15974 15975 1
15843 15974 15976 1
15844 15974 15977 1
15845 15978 15997 1
15846 15978 15986 1
15847 15978 15979 1
15848 15978 15980 1
15849 15979 15982 1
15850 15979 15983 1
15851 15979 15981 1
15852 15983 15985 1
15853 15983 15984 1
15854 15986 15987 1
15855 15986 15988 1
15856 15986 15989 1
15857 15990 16009 1
15858 15990 15991 1
15859 15990 15998 1
15860 15990 15992 1
15861 15991 15995 1
15862 15991 15994 1
15863 15991 15993 1
15864 15995 15996 1
15865 15995 15997 1
15866 15998 16000 1
15867 15998 15999 1
15868 15998 16001 1
15869 16002 16021 1
15870 16002 16010 1
15871 16002 16003 1
15872 16002 16004 1
15873 16003 16006 1
15874 16003 16005 1
15875 16003 16007 1
15876 16007 16008 1
15877 16007 16009 1
15878 16010 16012 1
15879 16010 16011 1
15880 16010 16013 1
15881 16014 16033 1
15882 16014 16015 1
15883 16014 16016 1
15884 16014 16022 1
15885 16015 16018 1
15886 16015 16019 1
15887 16015 16017 1
15888 16019 16020 1
15889 16019 16021 1
15890 16022 16023 1
15891 16022 16025 1
15892 16022 16024 1
15893 16026 16034 1
15894 16026 16045 1
15895 16026 16027 1
15896 16026 16028 1
15897 16027 16029 1
15898 16027 16030 1
15899 16027 16031 1
15900 16031 16032 1
15901 16031 16033 1
15902 16034 16036 1
15903 16034 16035 1
15904 16034 16037 1
15905 16038 16057 1
15906 16038 16039 1
15907 16038 16040 1
15908 16038 16046 1
15909 16039 16042 1
15910 16039 16043 1
15911 16039 16041 1
15912 16043 16044 1
15913 16043 16045 1
15914 16046 16049 1
15915 16046 16047 1
15916 16046 16048 1
15917 16050 16052 1
15918 16050 16051 1
15919 16050 16058 1
15920 16050 16069 1
15921 16051 16053 1
15922 16051 16054 1
15923 16051 16055 1
15924 16055 16056 1
15925 16055 16057 1
15926 16058 16061 1
15927 16058 16059 1
15928 16058 16060 1
15929 16062 16063 1
15930 16062 16081 1
15931 16062 16064 1
15932 16062 16070 1
15933 16063 16066 1
15934 16063 16065 1
15935 16063 16067 1
15936 16067 16068 1
15937 16067 16069 1
15938 16070 16071 1
15939 16070 16073 1
15940 16070 16072 1
15941 16074 16076 1
15942 16074 16075 1
15943 16074 16082 1
15944 16074 16093 1
15945 16075 16077 1
15946 16075 16079 1
15947 16075 16078 1
15948 16079 16081 1
15949 16079 16080 1
15950 16082 16083 1
15951 16082 16085 1
15952 16082 16084 1
15953 16086 16088 1
15954 16086 16087 1
15955 16086 16105 1
15956 16086 16094 1
15957 16087 16089 1
15958 16087 16090 1
15959 16087 16091 1
15960 16091 16092 1
15961 16091 16093 1
15962 16094 16095 1
15963 16094 16097 1
15964 16094 16096 1
15965 16098 16100 1
15966 16098 16106 1
15967 16098 16117 1
15968 16098 16099 1
15969 16099 16102 1
15970 16099 16103 1
15971 16099 16101 1
15972 16103 16105 1
15973 16103 16104 1
15974 16106 16107 1
15975 16106 16109 1
15976 16106 16108 1
15977 16110 16112 1
15978 16110 16129 1
15979 16110 16111 1
15980 16110 16118 1
15981 16111 16114 1
15982 16111 16115 1
15983 16111 16113 1
15984 16115 16116 1
15985 16115 16117 1
15986 16118 16119 1
15987 16118 16121 1
15988 16118 16120 1
15989 16122 16124 1
15990 16122 16130 1
15991 16122 16141 1
15992 16122 16123 1
15993 16123 16125 1
15994 16123 16126 1
15995 16123 16127 1
15996 16127 16129 1
15997 16127 16128 1
15998 16130 16132 1
15999 16130 16131 1
16000 16130 16133 1
16001 16134 16136 1
16002 16134 16153 1
16003 16134 16135 1
16004 16134 16142 1
16005 16135 16137 1
16006 16135 16138 1
16007 16135 16139 1
16008 16139 16140 1
16009 16139 16141 1
16010 16142 16145 1
16011 16142 16143 1
16012 16142 16144 1
16013 16146 16154 1
16014 16146 16148 1
16015 16146 16165 1
16016 16146 16147 1
16017 16147 16149 1
16018 16147 16151 1
16019 16147 16150 1
16020 16151 16153 1
16021 16151 16152 1
16022 16154 16157 1
16023 16154 16156 1
16024 16154 16155 1
16025 16158 16160 1
16026 16158 16166 1
16027 16158 16159 1
16028 16158 16177 1
16029 16159 16162 1
16030 16159 16161 1
16031 16159 16163 1
16032 16163 16164 1
16033 16163 16165 1
16034 16166 16169 1
16035 16166 16168 1
16036 16166 16167 1
16037 16170 16172 1
16038 16170 16171 1
16039 16170 16189 1
16040 16170 16178 1
16041 16171 16173 1
16042 16171 16175 1
16043 16171 16174 1
16044 16175 16177 1
16045 16175 16176 1
16046 16178 16180 1
16047 16178 16181 1
16048 16178 16179 1
16049 16182 16184 1
16050 16182 16183 1
16051 16182 16201 1
16052 16182 16190 1
16053 16183 16185 1
16054 16183 16187 1
16055 16183 16186 1
16056 16187 16188 1
16057 16187 16189 1
16058 16190 16192 1
16059 16190 16193 1
16060 16190 16191 1
16061 16194 16195 1
16062 16194 16196 1
16063 16194 16213 1
16064 16194 16202 1
16065 16195 16197 1
16066 16195 16199 1
16067 16195 16198 1
16068 16199 16201 1
16069 16199 16200 1
16070 16202 16203 1
16071 16202 16204 1
16072 16202 16205 1
16073 16206 16208 1
16074 16206 16207 1
16075 16206 16225 1
16076 16206 16214 1
16077 16207 16209 1
16078 16207 16211 1
16079 16207 16210 1
16080 16211 16212 1
16081 16211 16213 1
16082 16214 16215 1
16083 16214 16216 1
16084 16214 16217 1
16085 16218 16220 1
16086 16218 16237 1
16087 16218 16226 1
16088 16218 16219 1
16089 16219 16222 1
16090 16219 16221 1
16091 16219 16223 1
16092 16223 16224 1
16093 16223 16225 1
16094 16226 16228 1
16095 16226 16227 1
16096 16226 16229 1
16097 16230 16232 1
16098 16230 16231 1
16099 16230 16249 1
16100 16230 16238 1
16101 16231 16235 1
16102 16231 16233 1
16103 16231 16234 1
16104 16235 16236 1
16105 16235 16237 1
16106 16238 16239 1
16107 16238 16240 1
16108 16238 16241 1
16109 16242 16250 1
16110 16242 16261 1
16111 16242 16243 1
16112 16242 16244 1
16113 16243 16246 1
16114 16243 16245 1
16115 16243 16247 1
16116 16247 16248 1
16117 16247 16249 1
16118 16250 16253 1
16119 16250 16251 1
16120 16250 16252 1
16121 16254 16256 1
16122 16254 16262 1
16123 16254 16273 1
16124 16254 16255 1
16125 16255 16259 1
16126 16255 16257 1
16127 16255 16258 1
16128 16259 16260 1
16129 16259 16261 1
16130 16262 16265 1
16131 16262 16263 1
16132 16262 16264 1
16133 16266 16274 1
16134 16266 16267 1
16135 16266 16268 1
16136 16267 16269 1
16137 16267 16270 1
16138 16267 16271 1
16139 16271 16272 1
16140 16271 16273 1
16141 16274 16277 1
16142 16274 16275 1
16143 16274 16276 1
16144 16278 16279 1
16145 16279 16280 1
16146 16279 16287 1
16147 16279 16281 1
16148 16280 16284 1
16149 16280 16282 1
16150 16280 16283 1
16151 16284 16285 1
16152 16284 16286 1
16153 16287 16288 1
16154 16287 16290 1
16155 16287 16289 1
16156 16291 16292 1
16157 16291 16293 1
16158 16291 16300 1
16159 16292 16295 1
16160 16292 16294 1
16161 16292 16296 1
16162 16296 16298 1
16163 16296 16297 1
16164 16298 16299 1
16165 16300 16301 1
16166 16300 16302 1
16167 16300 16303 1
16168 16304 16306 1
16169 16304 16305 1
16170 16304 16323 1
16171 16304 16312 1
16172 16305 16307 1
16173 16305 16308 1
16174 16305 16309 1
16175 16309 16311 1
16176 16309 16310 1
16177 16312 16313 1
16178 16312 16314 1
16179 16312 16315 1
16180 16316 16318 1
16181 16316 16317 1
16182 16316 16324 1
16183 16316 16335 1
16184 16317 16319 1
16185 16317 16320 1
16186 16317 16321 1
16187 16321 16322 1
16188 16321 16323 1
16189 16324 16327 1
16190 16324 16326 1
16191 16324 16325 1
16192 16328 16329 1
16193 16328 16330 1
16194 16328 16336 1
16195 16328 16347 1
16196 16329 16331 1
16197 16329 16332 1
16198 16329 16333 1
16199 16333 16334 1
16200 16333 16335 1
16201 16336 16337 1
16202 16336 16339 1
16203 16336 16338 1
16204 16340 16342 1
16205 16340 16348 1
16206 16340 16341 1
16207 16340 16359 1
16208 16341 16344 1
16209 16341 16343 1
16210 16341 16345 1
16211 16345 16346 1
16212 16345 16347 1
16213 16348 16349 1
16214 16348 16351 1
16215 16348 16350 1
16216 16352 16354 1
16217 16352 16353 1
16218 16352 16360 1
16219 16352 16371 1
16220 16353 16355 1
16221 16353 16356 1
16222 16353 16357 1
16223 16357 16358 1
16224 16357 16359 1
16225 16360 16363 1
16226 16360 16361 1
16227 16360 16362 1
16228 16364 16366 1
16229 16364 16372 1
16230 16364 16365 1
16231 16364 16383 1
16232 16365 16367 1
16233 16365 16368 1
16234 16365 16369 1
16235 16369 16370 1
16236 16369 16371 1
16237 16372 16374 1
16238 16372 16375 1
16239 16372 16373 1
16240 16376 16378 1
16241 16376 16377 1
16242 16376 16384 1
16243 16376 16395 1
16244 16377 16380 1
16245 16377 16379 1
16246 16377 16381 1
16247 16381 16382 1
16248 16381 16383 1
16249 16384 16385 1
16250 16384 16386 1
16251 16384 16387 1
16252 16388 16390 1
16253 16388 16396 1
16254 16388 16389 1
16255 16388 16407 1
16256 16389 16391 1
16257 16389 16392 1
16258 16389 16393 1
16259 16393 16395 1
16260 16393 16394 1
16261 16396 16399 1
16262 16396 16397 1
16263 16396 16398 1
16264 16400 16408 1
16265 16400 16402 1
16266 16400 16401 1
16267 16400 16419 1
16268 16401 16403 1
16269 16401 16404 1
16270 16401 16405 1
16271 16405 16407 1
16272 16405 16406 1
16273 16408 16410 1
16274 16408 16409 1
16275 16408 16411 1
16276 16412 16420 1
16277 16412 16414 1
16278 16412 16431 1
16279 16412 16413 1
16280 16413 16416 1
16281 16413 16417 1
16282 16413 16415 1
16283 16417 16419 1
16284 16417 16418 1
16285 16420 16422 1
16286 16420 16421 1
16287 16420 16423 1
16288 16424 16426 1
16289 16424 16432 1
16290 16424 16425 1
16291 16424 16443 1
16292 16425 16428 1
16293 16425 16429 1
16294 16425 16427 1
16295 16429 16431 1
16296 16429 16430 1
16297 16432 16433 1
16298 16432 16434 1
16299 16432 16435 1
16300 16436 16438 1
16301 16436 16444 1
16302 16436 16455 1
16303 16436 16437 1
16304 16437 16441 1
16305 16437 16440 1
16306 16437 16439 1
16307 16441 16443 1
16308 16441 16442 1
16309 16444 16445 1
16310 16444 16446 1
16311 16444 16447 1
16312 16448 16450 1
16313 16448 16456 1
16314 16448 16449 1
16315 16448 16467 1
16316 16449 16451 1
16317 16449 16452 1
16318 16449 16453 1
16319 16453 16455 1
16320 16453 16454 1
16321 16456 16458 1
16322 16456 16457 1
16323 16456 16459 1
16324 16460 16461 1
16325 16460 16479 1
16326 16460 16468 1
16327 16460 16462 1
16328 16461 16463 1
16329 16461 16464 1
16330 16461 16465 1
16331 16465 16467 1
16332 16465 16466 1
16333 16468 16469 1
16334 16468 16470 1
16335 16468 16471 1
16336 16472 16473 1
16337 16472 16491 1
16338 16472 16474 1
16339 16472 16480 1
16340 16473 16475 1
16341 16473 16477 1
16342 16473 16476 1
16343 16477 16479 1
16344 16477 16478 1
16345 16480 16481 1
16346 16480 16482 1
16347 16480 16483 1
16348 16484 16486 1
16349 16484 16485 1
16350 16484 16503 1
16351 16484 16492 1
16352 16485 16487 1
16353 16485 16489 1
16354 16485 16488 1
16355 16489 16490 1
16356 16489 16491 1
16357 16492 16495 1
16358 16492 16493 1
16359 16492 16494 1
16360 16496 16498 1
16361 16496 16497 1
16362 16496 16515 1
16363 16496 16504 1
16364 16497 16499 1
16365 16497 16500 1
16366 16497 16501 1
16367 16501 16502 1
16368 16501 16503 1
16369 16504 16507 1
16370 16504 16505 1
16371 16504 16506 1
16372 16508 16510 1
16373 16508 16527 1
16374 16508 16516 1
16375 16508 16509 1
16376 16509 16512 1
16377 16509 16513 1
16378 16509 16511 1
16379 16513 16514 1
16380 16513 16515 1
16381 16516 16517 1
16382 16516 16519 1
16383 16516 16518 1
16384 16520 16522 1
16385 16520 16539 1
16386 16520 16521 1
16387 16520 16528 1
16388 16521 16524 1
16389 16521 16525 1
16390 16521 16523 1
16391 16525 16526 1
16392 16525 16527 1
16393 16528 16529 1
16394 16528 16531 1
16395 16528 16530 1
16396 16532 16534 1
16397 16532 16551 1
16398 16532 16540 1
16399 16532 16533 1
16400 16533 16535 1
16401 16533 16536 1
16402 16533 16537 1
16403 16537 16538 1
16404 16537 16539 1
16405 16540 16542 1
16406 16540 16543 1
16407 16540 16541 1
16408 16544 16546 1
16409 16544 16563 1
16410 16544 16545 1
16411 16544 16552 1
16412 16545 16547 1
16413 16545 16548 1
16414 16545 16549 1
16415 16549 16550 1
16416 16549 16551 1
16417 16552 16554 1
16418 16552 16555 1
16419 16552 16553 1
16420 16556 16564 1
16421 16556 16558 1
16422 16556 16575 1
16423 16556 16557 1
16424 16557 16560 1
16425 16557 16559 1
16426 16557 16561 1
16427 16561 16562 1
16428 16561 16563 1
16429 16564 16567 1
16430 16564 16565 1
16431 16564 16566 1
16432 16568 16576 1
16433 16568 16587 1
16434 16568 16570 1
16435 16568 16569 1
16436 16569 16571 1
16437 16569 16573 1
16438 16569 16572 1
16439 16573 16574 1
16440 16573 16575 1
16441 16576 16579 1
16442 16576 16577 1
16443 16576 16578 1
16444 16580 16588 1
16445 16580 16599 1
16446 16580 16581 1
16447 16580 16582 1
16448 16581 16584 1
16449 16581 16585 1
16450 16581 16583 1
16451 16585 16586 1
16452 16585 16587 1
16453 16588 16590 1
16454 16588 16591 1
16455 16588 16589 1
16456 16592 16594 1
16457 16592 16593 1
16458 16592 16600 1
16459 16592 16611 1
16460 16593 16596 1
16461 16593 16597 1
16462 16593 16595 1
16463 16597 16598 1
16464 16597 16599 1
16465 16600 16601 1
16466 16600 16602 1
16467 16600 16603 1
16468 16604 16606 1
16469 16604 16605 1
16470 16604 16623 1
16471 16604 16612 1
16472 16605 16608 1
16473 16605 16609 1
16474 16605 16607 1
16475 16609 16610 1
16476 16609 16611 1
16477 16612 16613 1
16478 16612 16614 1
16479 16612 16615 1
16480 16616 16618 1
16481 16616 16617 1
16482 16616 16624 1
16483 16616 16635 1
16484 16617 16619 1
16485 16617 16620 1
16486 16617 16621 1
16487 16621 16623 1
16488 16621 16622 1
16489 16624 16625 1
16490 16624 16626 1
16491 16624 16627 1
16492 16628 16629 1
16493 16628 16630 1
16494 16628 16636 1
16495 16629 16631 1
16496 16629 16632 1
16497 16629 16633 1
16498 16633 16635 1
16499 16633 16634 1
16500 16636 16638 1
16501 16636 16637 1
16502 16636 16639 1
16503 16640 16641 1
16504 16641 16642 1
16505 16641 16643 1
16506 16641 16649 1
16507 16642 16644 1
16508 16642 16645 1
16509 16642 16646 1
16510 16646 16648 1
16511 16646 16647 1
16512 16649 16650 1
16513 16649 16651 1
16514 16649 16652 1
16515 16653 16662 1
16516 16653 16655 1
16517 16653 16654 1
16518 16654 16657 1
16519 16654 16656 1
16520 16654 16658 1
16521 16658 16659 1
16522 16658 16660 1
16523 16660 16661 1
16524 16662 16663 1
16525 16662 16665 1
16526 16662 16664 1
16527 16666 16685 1
16528 16666 16674 1
16529 16666 16668 1
16530 16666 16667 1
16531 16667 16669 1
16532 16667 16670 1
16533 16667 16671 1
16534 16671 16672 1
16535 16671 16673 1
16536 16674 16675 1
16537 16674 16676 1
16538 16674 16677 1
16539 16678 16697 1
16540 16678 16686 1
16541 16678 16680 1
16542 16678 16679 1
16543 16679 16681 1
16544 16679 16682 1
16545 16679 16683 1
16546 16683 16684 1
16547 16683 16685 1
16548 16686 16688 1
16549 16686 16687 1
16550 16686 16689 1
16551 16690 16691 1
16552 16690 16709 1
16553 16690 16698 1
16554 16690 16692 1
16555 16691 16695 1
16556 16691 16694 1
16557 16691 16693 1
16558 16695 16696 1
16559 16695 16697 1
16560 16698 16699 1
16561 16698 16700 1
16562 16698 16701 1
16563 16702 16721 1
16564 16702 16710 1
16565 16702 16703 1
16566 16702 16704 1
16567 16703 16707 1
16568 16703 16705 1
16569 16703 16706 1
16570 16707 16709 1
16571 16707 16708 1
16572 16710 16711 1
16573 16710 16712 1
16574 16710 16713 1
16575 16714 16733 1
16576 16714 16715 1
16577 16714 16722 1
16578 16714 16716 1
16579 16715 16719 1
16580 16715 16718 1
16581 16715 16717 1
16582 16719 16720 1
16583 16719 16721 1
16584 16722 16724 1
16585 16722 16723 1
16586 16722 16725 1
16587 16726 16745 1
16588 16726 16734 1
16589 16726 16727 1
16590 16726 16728 1
16591 16727 16730 1
16592 16727 16731 1
16593 16727 16729 1
16594 16731 16733 1
16595 16731 16732 1
16596 16734 16736 1
16597 16734 16737 1
16598 16734 16735 1
16599 16738 16757 1
16600 16738 16739 1
16601 16738 16746 1
16602 16738 16740 1
16603 16739 16742 1
16604 16739 16743 1
16605 16739 16741 1
16606 16743 16744 1
16607 16743 16745 1
16608 16746 16748 1
16609 16746 16749 1
16610 16746 16747 1
16611 16750 16769 1
16612 16750 16751 1
16613 16750 16752 1
16614 16750 16758 1
16615 16751 16754 1
16616 16751 16753 1
16617 16751 16755 1
16618 16755 16756 1
16619 16755 16757 1
16620 16758 16761 1
16621 16758 16759 1
16622 16758 16760 1
16623 16762 16781 1
16624 16762 16763 1
16625 16762 16764 1
16626 16762 16770 1
16627 16763 16765 1
16628 16763 16766 1
16629 16763 16767 1
16630 16767 16768 1
16631 16767 16769 1
16632 16770 16773 1
16633 16770 16771 1
16634 16770 16772 1
16635 16774 16793 1
16636 16774 16775 1
16637 16774 16782 1
16638 16774 16776 1
16639 16775 16777 1
16640 16775 16778 1
16641 16775 16779 1
16642 16779 16780 1
16643 16779 16781 1
16644 16782 16785 1
16645 16782 16783 1
16646 16782 16784 1
16647 16786 16787 1
16648 16786 16788 1
16649 16786 16805 1
16650 16786 16794 1
16651 16787 16790 1
16652 16787 16789 1
16653 16787 16791 1
16654 16791 16792 1
16655 16791 16793 1
16656 16794 16795 1
16657 16794 16797 1
16658 16794 16796 1
16659 16798 16800 1
16660 16798 16799 1
16661 16798 16817 1
16662 16798 16806 1
16663 16799 16801 1
16664 16799 16803 1
16665 16799 16802 1
16666 16803 16804 1
16667 16803 16805 1
16668 16806 16807 1
16669 16806 16809 1
16670 16806 16808 1
16671 16810 16812 1
16672 16810 16811 1
16673 16810 16829 1
16674 16810 16818 1
16675 16811 16813 1
16676 16811 16814 1
16677 16811 16815 1
16678 16815 16817 1
16679 16815 16816 1
16680 16818 16819 1
16681 16818 16821 1
16682 16818 16820 1
16683 16822 16824 1
16684 16822 16841 1
16685 16822 16830 1
16686 16822 16823 1
16687 16823 16826 1
16688 16823 16827 1
16689 16823 16825 1
16690 16827 16829 1
16691 16827 16828 1
16692 16830 16831 1
16693 16830 16833 1
16694 16830 16832 1
16695 16834 16836 1
16696 16834 16835 1
16697 16834 16853 1
16698 16834 16842 1
16699 16835 16838 1
16700 16835 16839 1
16701 16835 16837 1
16702 16839 16841 1
16703 16839 16840 1
16704 16842 16843 1
16705 16842 16845 1
16706 16842 16844 1
16707 16846 16848 1
16708 16846 16854 1
16709 16846 16865 1
16710 16846 16847 1
16711 16847 16849 1
16712 16847 16850 1
16713 16847 16851 1
16714 16851 16853 1
16715 16851 16852 1
16716 16854 16857 1
16717 16854 16855 1
16718 16854 16856 1
16719 16858 16860 1
16720 16858 16866 1
16721 16858 16859 1
16722 16858 16877 1
16723 16859 16861 1
16724 16859 16862 1
16725 16859 16863 1
16726 16863 16864 1
16727 16863 16865 1
16728 16866 16868 1
16729 16866 16869 1
16730 16866 16867 1
16731 16870 16878 1
16732 16870 16872 1
16733 16870 16889 1
16734 16870 16871 1
16735 16871 16874 1
16736 16871 16873 1
16737 16871 16875 1
16738 16875 16877 1
16739 16875 16876 1
16740 16878 16881 1
16741 16878 16880 1
16742 16878 16879 1
16743 16882 16883 1
16744 16882 16884 1
16745 16882 16901 1
16746 16882 16890 1
16747 16883 16885 1
16748 16883 16887 1
16749 16883 16886 1
16750 16887 16888 1
16751 16887 16889 1
16752 16890 16893 1
16753 16890 16892 1
16754 16890 16891 1
16755 16894 16896 1
16756 16894 16895 1
16757 16894 16913 1
16758 16894 16902 1
16759 16895 16897 1
16760 16895 16899 1
16761 16895 16898 1
16762 16899 16901 1
16763 16899 16900 1
16764 16902 16904 1
16765 16902 16905 1
16766 16902 16903 1
16767 16906 16908 1
16768 16906 16907 1
16769 16906 16925 1
16770 16906 16914 1
16771 16907 16909 1
16772 16907 16911 1
16773 16907 16910 1
16774 16911 16912 1
16775 16911 16913 1
16776 16914 16916 1
16777 16914 16917 1
16778 16914 16915 1
16779 16918 16919 1
16780 16918 16920 1
16781 16918 16937 1
16782 16918 16926 1
16783 16919 16921 1
16784 16919 16923 1
16785 16919 16922 1
16786 16923 16925 1
16787 16923 16924 1
16788 16926 16927 1
16789 16926 16928 1
16790 16926 16929 1
16791 16930 16932 1
16792 16930 16931 1
16793 16930 16949 1
16794 16930 16938 1
16795 16931 16935 1
16796 16931 16933 1
16797 16931 16934 1
16798 16935 16936 1
16799 16935 16937 1
16800 16938 16939 1
16801 16938 16940 1
16802 16938 16941 1
16803 16942 16944 1
16804 16942 16961 1
16805 16942 16943 1
16806 16942 16950 1
16807 16943 16947 1
16808 16943 16946 1
16809 16943 16945 1
16810 16947 16948 1
16811 16947 16949 1
16812 16950 16952 1
16813 16950 16951 1
16814 16950 16953 1
16815 16954 16956 1
16816 16954 16973 1
16817 16954 16955 1
16818 16954 16962 1
16819 16955 16958 1
16820 16955 16957 1
16821 16955 16959 1
16822 16959 16960 1
16823 16959 16961 1
16824 16962 16963 1
16825 16962 16964 1
16826 16962 16965 1
16827 16966 16974 1
16828 16966 16968 1
16829 16966 16985 1
16830 16966 16967 1
16831 16967 16970 1
16832 16967 16969 1
16833 16967 16971 1
16834 16971 16972 1
16835 16971 16973 1
16836 16974 16977 1
16837 16974 16975 1
16838 16974 16976 1
16839 16978 16986 1
16840 16978 16997 1
16841 16978 16980 1
16842 16978 16979 1
16843 16979 16981 1
16844 16979 16982 1
16845 16979 16983 1
16846 16983 16984 1
16847 16983 16985 1
16848 16986 16989 1
16849 16986 16987 1
16850 16986 16988 1
16851 16990 16998 1
16852 16990 16991 1
16853 16990 16992 1
16854 16991 16993 1
16855 16991 16994 1
16856 16991 16995 1
16857 16995 16996 1
16858 16995 16997 1
16859 16998 17001 1
16860 16998 16999 1
16861 16998 17000 1
16862 17002 17003 1
16863 17003 17011 1
16864 17003 17005 1
16865 17003 17004 1
16866 17004 17006 1
16867 17004 17007 1
16868 17004 17008 1
16869 17008 17009 1
16870 17008 17010 1
16871 17011 17012 1
16872 17011 17013 1
16873 17011 17014 1
16874 17015 17016 1
16875 17015 17017 1
16876 17015 17024 1
16877 17016 17019 1
16878 17016 17018 1
16879 17016 17020 1
16880 17020 17022 1
16881 17020 17021 1
16882 17022 17023 1
16883 17024 17025 1
16884 17024 17026 1
16885 17024 17027 1
16886 17028 17030 1
16887 17028 17029 1
16888 17028 17047 1
16889 17028 17036 1
16890 17029 17031 1
16891 17029 17032 1
16892 17029 17033 1
16893 17033 17035 1
16894 17033 17034 1
16895 17036 17037 1
16896 17036 17038 1
16897 17036 17039 1
16898 17040 17042 1
16899 17040 17041 1
16900 17040 17048 1
16901 17040 17059 1
16902 17041 17043 1
16903 17041 17044 1
16904 17041 17045 1
16905 17045 17046 1
16906 17045 17047 1
16907 17048 17051 1
16908 17048 17049 1
16909 17048 17050 1
16910 17052 17053 1
16911 17052 17054 1
16912 17052 17060 1
16913 17052 17071 1
16914 17053 17055 1
16915 17053 17056 1
16916 17053 17057 1
16917 17057 17058 1
16918 17057 17059 1
16919 17060 17061 1
16920 17060 17063 1
16921 17060 17062 1
16922 17064 17066 1
16923 17064 17072 1
16924 17064 17065 1
16925 17064 17083 1
16926 17065 17068 1
16927 17065 17067 1
16928 17065 17069 1
16929 17069 17070 1
16930 17069 17071 1
16931 17072 17073 1
16932 17072 17075 1
16933 17072 17074 1
16934 17076 17078 1
16935 17076 17077 1
16936 17076 17084 1
16937 17076 17095 1
16938 17077 17079 1
16939 17077 17080 1
16940 17077 17081 1
16941 17081 17082 1
16942 17081 17083 1
16943 17084 17087 1
16944 17084 17085 1
16945 17084 17086 1
16946 17088 17090 1
16947 17088 17096 1
16948 17088 17089 1
16949 17088 17107 1
16950 17089 17091 1
16951 17089 17092 1
16952 17089 17093 1
16953 17093 17094 1
16954 17093 17095 1
16955 17096 17098 1
16956 17096 17099 1
16957 17096 17097 1
16958 17100 17102 1
16959 17100 17101 1
16960 17100 17108 1
16961 17100 17119 1
16962 17101 17104 1
16963 17101 17103 1
16964 17101 17105 1
16965 17105 17107 1
16966 17105 17106 1
16967 17108 17109 1
16968 17108 17110 1
16969 17108 17111 1
16970 17112 17114 1
16971 17112 17120 1
16972 17112 17113 1
16973 17112 17131 1
16974 17113 17115 1
16975 17113 17116 1
16976 17113 17117 1
16977 17117 17119 1
16978 17117 17118 1
16979 17120 17121 1
16980 17120 17122 1
16981 17120 17123 1
16982 17124 17132 1
16983 17124 17126 1
16984 17124 17125 1
16985 17124 17143 1
16986 17125 17128 1
16987 17125 17129 1
16988 17125 17127 1
16989 17129 17131 1
16990 17129 17130 1
16991 17132 17135 1
16992 17132 17134 1
16993 17132 17133 1
16994 17136 17144 1
16995 17136 17138 1
16996 17136 17155 1
16997 17136 17137 1
16998 17137 17140 1
16999 17137 17141 1
17000 17137 17139 1
17001 17141 17143 1
17002 17141 17142 1
17003 17144 17146 1
17004 17144 17145 1
17005 17144 17147 1
17006 17148 17150 1
17007 17148 17156 1
17008 17148 17149 1
17009 17148 17167 1
17010 17149 17152 1
17011 17149 17153 1
17012 17149 17151 1
17013 17153 17155 1
17014 17153 17154 1
17015 17156 17157 1
17016 17156 17158 1
17017 17156 17159 1
17018 17160 17162 1
17019 17160 17168 1
17020 17160 17179 1
17021 17160 17161 1
17022 17161 17165 1
17023 17161 17164 1
17024 17161 17163 1
17025 17165 17167 1
17026 17165 17166 1
17027 17168 17169 1
17028 17168 17170 1
17029 17168 17171 1
17030 17172 17173 1
17031 17172 17191 1
17032 17172 17174 1
17033 17172 17180 1
17034 17173 17175 1
17035 17173 17176 1
17036 17173 17177 1
17037 17177 17179 1
17038 17177 17178 1
17039 17180 17182 1
17040 17180 17181 1
17041 17180 17183 1
17042 17184 17186 1
17043 17184 17192 1
17044 17184 17203 1
17045 17184 17185 1
17046 17185 17187 1
17047 17185 17188 1
17048 17185 17189 1
17049 17189 17191 1
17050 17189 17190 1
17051 17192 17193 1
17052 17192 17194 1
17053 17192 17195 1
17054 17196 17197 1
17055 17196 17198 1
17056 17196 17215 1
17057 17196 17204 1
17058 17197 17199 1
17059 17197 17200 1
17060 17197 17201 1
17061 17201 17202 1
17062 17201 17203 1
17063 17204 17205 1
17064 17204 17206 1
17065 17204 17207 1
17066 17208 17210 1
17067 17208 17209 1
17068 17208 17227 1
17069 17208 17216 1
17070 17209 17211 1
17071 17209 17213 1
17072 17209 17212 1
17073 17213 17215 1
17074 17213 17214 1
17075 17216 17219 1
17076 17216 17217 1
17077 17216 17218 1
17078 17220 17222 1
17079 17220 17221 1
17080 17220 17239 1
17081 17220 17228 1
17082 17221 17223 1
17083 17221 17224 1
17084 17221 17225 1
17085 17225 17226 1
17086 17225 17227 1
17087 17228 17231 1
17088 17228 17229 1
17089 17228 17230 1
17090 17232 17233 1
17091 17232 17234 1
17092 17232 17251 1
17093 17232 17240 1
17094 17233 17235 1
17095 17233 17237 1
17096 17233 17236 1
17097 17237 17239 1
17098 17237 17238 1
17099 17240 17241 1
17100 17240 17243 1
17101 17240 17242 1
17102 17244 17246 1
17103 17244 17263 1
17104 17244 17245 1
17105 17244 17252 1
17106 17245 17248 1
17107 17245 17247 1
17108 17245 17249 1
17109 17249 17250 1
17110 17249 17251 1
17111 17252 17253 1
17112 17252 17255 1
17113 17252 17254 1
17114 17256 17258 1
17115 17256 17275 1
17116 17256 17264 1
17117 17256 17257 1
17118 17257 17259 1
17119 17257 17260 1
17120 17257 17261 1
17121 17261 17262 1
17122 17261 17263 1
17123 17264 17266 1
17124 17264 17267 1
17125 17264 17265 1
17126 17268 17270 1
17127 17268 17276 1
17128 17268 17287 1
17129 17268 17269 1
17130 17269 17271 1
17131 17269 17272 1
17132 17269 17273 1
17133 17273 17274 1
17134 17273 17275 1
17135 17276 17279 1
17136 17276 17278 1
17137 17276 17277 1
17138 17280 17282 1
17139 17280 17299 1
17140 17280 17288 1
17141 17280 17281 1
17142 17281 17284 1
17143 17281 17283 1
17144 17281 17285 1
17145 17285 17286 1
17146 17285 17287 1
17147 17288 17289 1
17148 17288 17290 1
17149 17288 17291 1
17150 17292 17300 1
17151 17292 17311 1
17152 17292 17294 1
17153 17292 17293 1
17154 17293 17295 1
17155 17293 17297 1
17156 17293 17296 1
17157 17297 17298 1
17158 17297 17299 1
17159 17300 17302 1
17160 17300 17303 1
17161 17300 17301 1
17162 17304 17312 1
17163 17304 17323 1
17164 17304 17305 1
17165 17304 17306 1
17166 17305 17308 1
17167 17305 17307 1
17168 17305 17309 1
17169 17309 17311 1
17170 17309 17310 1
17171 17312 17315 1
17172 17312 17314 1
17173 17312 17313 1
17174 17316 17318 1
17175 17316 17317 1
17176 17316 17324 1
17177 17316 17335 1
17178 17317 17320 1
17179 17317 17321 1
17180 17317 17319 1
17181 17321 17322 1
17182 17321 17323 1
17183 17324 17325 1
17184 17324 17326 1
17185 17324 17327 1
17186 17328 17330 1
17187 17328 17329 1
17188 17328 17347 1
17189 17328 17336 1
17190 17329 17332 1
17191 17329 17331 1
17192 17329 17333 1
17193 17333 17335 1
17194 17333 17334 1
17195 17336 17337 1
17196 17336 17338 1
17197 17336 17339 1
17198 17340 17342 1
17199 17340 17341 1
17200 17340 17348 1
17201 17340 17359 1
17202 17341 17343 1
17203 17341 17345 1
17204 17341 17344 1
17205 17345 17346 1
17206 17345 17347 1
17207 17348 17349 1
17208 17348 17350 1
17209 17348 17351 1
17210 17352 17353 1
17211 17352 17354 1
17212 17352 17360 1
17213 17353 17355 1
17214 17353 17356 1
17215 17353 17357 1
17216 17357 17359 1
17217 17357 17358 1
17218 17360 17362 1
17219 17360 17361 1
17220 17360 17363 1
17221 17364 17365 1
17222 17365 17366 1
17223 17365 17367 1
17224 17365 17373 1
17225 17366 17368 1
17226 17366 17369 1
17227 17366 17370 1
17228 17370 17372 1
17229 17370 17371 1
17230 17373 17374 1
17231 17373 17375 1
17232 17373 17376 1
17233 17377 17379 1
17234 17377 17386 1
17235 17377 17378 1
17236 17378 17382 1
17237 17378 17380 1
17238 17378 17381 1
17239 17382 17383 1
17240 17382 17384 1
17241 17384 17385 1
17242 17386 17389 1
17243 17386 17387 1
17244 17386 17388 1
17245 17390 17392 1
17246 17390 17391 1
17247 17390 17409 1
17248 17390 17398 1
17249 17391 17394 1
17250 17391 17393 1
17251 17391 17395 1
17252 17395 17396 1
17253 17395 17397 1
17254 17398 17399 1
17255 17398 17400 1
17256 17398 17401 1
17257 17402 17404 1
17258 17402 17410 1
17259 17402 17403 1
17260 17402 17421 1
17261 17403 17406 1
17262 17403 17407 1
17263 17403 17405 1
17264 17407 17409 1
17265 17407 17408 1
17266 17410 17413 1
17267 17410 17411 1
17268 17410 17412 1
17269 17414 17416 1
17270 17414 17415 1
17271 17414 17433 1
17272 17414 17422 1
17273 17415 17418 1
17274 17415 17417 1
17275 17415 17419 1
17276 17419 17420 1
17277 17419 17421 1
17278 17422 17424 1
17279 17422 17423 1
17280 17422 17425 1
17281 17426 17434 1
17282 17426 17427 1
17283 17426 17428 1
17284 17426 17445 1
17285 17427 17430 1
17286 17427 17429 1
17287 17427 17431 1
17288 17431 17433 1
17289 17431 17432 1
17290 17434 17436 1
17291 17434 17437 1
17292 17434 17435 1
17293 17438 17446 1
17294 17438 17440 1
17295 17438 17439 1
17296 17438 17457 1
17297 17439 17441 1
17298 17439 17442 1
17299 17439 17443 1
17300 17443 17444 1
17301 17443 17445 1
17302 17446 17449 1
17303 17446 17447 1
17304 17446 17448 1
17305 17450 17451 1
17306 17450 17458 1
17307 17450 17452 1
17308 17450 17469 1
17309 17451 17453 1
17310 17451 17454 1
17311 17451 17455 1
17312 17455 17457 1
17313 17455 17456 1
17314 17458 17460 1
17315 17458 17459 1
17316 17458 17461 1
17317 17462 17464 1
17318 17462 17470 1
17319 17462 17463 1
17320 17462 17481 1
17321 17463 17467 1
17322 17463 17466 1
17323 17463 17465 1
17324 17467 17469 1
17325 17467 17468 1
17326 17470 17471 1
17327 17470 17473 1
17328 17470 17472 1
17329 17474 17476 1
17330 17474 17475 1
17331 17474 17482 1
17332 17474 17493 1
17333 17475 17477 1
17334 17475 17478 1
17335 17475 17479 1
17336 17479 17481 1
17337 17479 17480 1
17338 17482 17483 1
17339 17482 17484 1
17340 17482 17485 1
17341 17486 17488 1
17342 17486 17494 1
17343 17486 17505 1
17344 17486 17487 1
17345 17487 17491 1
17346 17487 17490 1
17347 17487 17489 1
17348 17491 17493 1
17349 17491 17492 1
17350 17494 17497 1
17351 17494 17495 1
17352 17494 17496 1
17353 17498 17500 1
17354 17498 17506 1
17355 17498 17499 1
17356 17498 17517 1
17357 17499 17501 1
17358 17499 17503 1
17359 17499 17502 1
17360 17503 17505 1
17361 17503 17504 1
17362 17506 17508 1
17363 17506 17507 1
17364 17506 17509 1
17365 17510 17511 1
17366 17510 17529 1
17367 17510 17512 1
17368 17510 17518 1
17369 17511 17514 1
17370 17511 17513 1
17371 17511 17515 1
17372 17515 17516 1
17373 17515 17517 1
17374 17518 17519 1
17375 17518 17520 1
17376 17518 17521 1
17377 17522 17530 1
17378 17522 17524 1
17379 17522 17541 1
17380 17522 17523 1
17381 17523 17526 1
17382 17523 17527 1
17383 17523 17525 1
17384 17527 17529 1
17385 17527 17528 1
17386 17530 17532 1
17387 17530 17531 1
17388 17530 17533 1
17389 17534 17553 1
17390 17534 17535 1
17391 17534 17536 1
17392 17534 17542 1
17393 17535 17537 1
17394 17535 17538 1
17395 17535 17539 1
17396 17539 17540 1
17397 17539 17541 1
17398 17542 17545 1
17399 17542 17544 1
17400 17542 17543 1
17401 17546 17554 1
17402 17546 17548 1
17403 17546 17565 1
17404 17546 17547 1
17405 17547 17550 1
17406 17547 17551 1
17407 17547 17549 1
17408 17551 17553 1
17409 17551 17552 1
17410 17554 17556 1
17411 17554 17555 1
17412 17554 17557 1
17413 17558 17559 1
17414 17558 17577 1
17415 17558 17560 1
17416 17558 17566 1
17417 17559 17561 1
17418 17559 17562 1
17419 17559 17563 1
17420 17563 17564 1
17421 17563 17565 1
17422 17566 17567 1
17423 17566 17569 1
17424 17566 17568 1
17425 17570 17578 1
17426 17570 17572 1
17427 17570 17589 1
17428 17570 17571 1
17429 17571 17573 1
17430 17571 17574 1
17431 17571 17575 1
17432 17575 17577 1
17433 17575 17576 1
17434 17578 17580 1
17435 17578 17581 1
17436 17578 17579 1
17437 17582 17601 1
17438 17582 17584 1
17439 17582 17583 1
17440 17582 17590 1
17441 17583 17587 1
17442 17583 17586 1
17443 17583 17585 1
17444 17587 17588 1
17445 17587 17589 1
17446 17590 17592 1
17447 17590 17591 1
17448 17590 17593 1
17449 17594 17595 1
17450 17594 17613 1
17451 17594 17596 1
17452 17594 17602 1
17453 17595 17599 1
17454 17595 17597 1
17455 17595 17598 1
17456 17599 17601 1
17457 17599 17600 1
17458 17602 17603 1
17459 17602 17604 1
17460 17602 17605 1
17461 17606 17625 1
17462 17606 17608 1
17463 17606 17607 1
17464 17606 17614 1
17465 17607 17610 1
17466 17607 17611 1
17467 17607 17609 1
17468 17611 17612 1
17469 17611 17613 1
17470 17614 17615 1
17471 17614 17616 1
17472 17614 17617 1
17473 17618 17637 1
17474 17618 17619 1
17475 17618 17620 1
17476 17618 17626 1
17477 17619 17623 1
17478 17619 17621 1
17479 17619 17622 1
17480 17623 17625 1
17481 17623 17624 1
17482 17626 17628 1
17483 17626 17629 1
17484 17626 17627 1
17485 17630 17649 1
17486 17630 17638 1
17487 17630 17632 1
17488 17630 17631 1
17489 17631 17634 1
17490 17631 17633 1
17491 17631 17635 1
17492 17635 17636 1
17493 17635 17637 1
17494 17638 17640 1
17495 17638 17641 1
17496 17638 17639 1
17497 17642 17661 1
17498 17642 17644 1
17499 17642 17650 1
17500 17642 17643 1
17501 17643 17646 1
17502 17643 17645 1
17503 17643 17647 1
17504 17647 17649 1
17505 17647 17648 1
17506 17650 17651 1
17507 17650 17653 1
17508 17650 17652 1
17509 17654 17655 1
17510 17654 17656 1
17511 17654 17662 1
17512 17654 17673 1
17513 17655 17657 1
17514 17655 17659 1
17515 17655 17658 1
17516 17659 17660 1
17517 17659 17661 1
17518 17662 17663 1
17519 17662 17665 1
17520 17662 17664 1
17521 17666 17685 1
17522 17666 17668 1
17523 17666 17674 1
17524 17666 17667 1
17525 17667 17669 1
17526 17667 17670 1
17527 17667 17671 1
17528 17671 17673 1
17529 17671 17672 1
17530 17674 17677 1
17531 17674 17676 1
17532 17674 17675 1
17533 17678 17679 1
17534 17678 17680 1
17535 17678 17686 1
17536 17678 17697 1
17537 17679 17681 1
17538 17679 17683 1
17539 17679 17682 1
17540 17683 17684 1
17541 17683 17685 1
17542 17686 17687 1
17543 17686 17689 1
17544 17686 17688 1
17545 17690 17709 1
17546 17690 17698 1
17547 17690 17691 1
17548 17690 17692 1
17549 17691 17693 1
17550 17691 17694 1
17551 17691 17695 1
17552 17695 17696 1
17553 17695 17697 1
17554 17698 17699 1
17555 17698 17701 1
17556 17698 17700 1
17557 17702 17704 1
17558 17702 17703 1
17559 17702 17710 1
17560 17702 17721 1
17561 17703 17707 1
17562 17703 17705 1
17563 17703 17706 1
17564 17707 17708 1
17565 17707 17709 1
17566 17710 17711 1
17567 17710 17712 1
17568 17710 17713 1
17569 17714 17722 1
17570 17714 17716 1
17571 17714 17715 1
17572 17715 17717 1
17573 17715 17718 1
17574 17715 17719 1
17575 17719 17720 1
17576 17719 17721 1
17577 17722 17725 1
17578 17722 17723 1
17579 17722 17724 1
17580 17726 17727 1
17581 17727 17729 1
17582 17727 17735 1
17583 17727 17728 1
17584 17728 17732 1
17585 17728 17730 1
17586 17728 17731 1
17587 17732 17733 1
17588 17732 17734 1
17589 17735 17738 1
17590 17735 17736 1
17591 17735 17737 1
17592 17739 17741 1
17593 17739 17740 1
17594 17739 17748 1
17595 17740 17743 1
17596 17740 17742 1
17597 17740 17744 1
17598 17744 17746 1
17599 17744 17745 1
17600 17746 17747 1
17601 17748 17749 1
17602 17748 17751 1
17603 17748 17750 1
17604 17752 17754 1
17605 17752 17753 1
17606 17752 17760 1
17607 17752 17771 1
17608 17753 17757 1
17609 17753 17756 1
17610 17753 17755 1
17611 17757 17758 1
17612 17757 17759 1
17613 17760 17763 1
17614 17760 17762 1
17615 17760 17761 1
17616 17764 17766 1
17617 17764 17765 1
17618 17764 17772 1
17619 17764 17783 1
17620 17765 17767 1
17621 17765 17768 1
17622 17765 17769 1
17623 17769 17771 1
17624 17769 17770 1
17625 17772 17774 1
17626 17772 17773 1
17627 17772 17775 1
17628 17776 17784 1
17629 17776 17778 1
17630 17776 17777 1
17631 17776 17795 1
17632 17777 17780 1
17633 17777 17781 1
17634 17777 17779 1
17635 17781 17782 1
17636 17781 17783 1
17637 17784 17785 1
17638 17784 17787 1
17639 17784 17786 1
17640 17788 17790 1
17641 17788 17796 1
17642 17788 17789 1
17643 17788 17807 1
17644 17789 17791 1
17645 17789 17792 1
17646 17789 17793 1
17647 17793 17795 1
17648 17793 17794 1
17649 17796 17799 1
17650 17796 17797 1
17651 17796 17798 1
17652 17800 17808 1
17653 17800 17802 1
17654 17800 17801 1
17655 17800 17819 1
17656 17801 17803 1
17657 17801 17804 1
17658 17801 17805 1
17659 17805 17806 1
17660 17805 17807 1
17661 17808 17810 1
17662 17808 17809 1
17663 17808 17811 1
17664 17812 17814 1
17665 17812 17813 1
17666 17812 17820 1
17667 17812 17831 1
17668 17813 17815 1
17669 17813 17816 1
17670 17813 17817 1
17671 17817 17819 1
17672 17817 17818 1
17673 17820 17823 1
17674 17820 17821 1
17675 17820 17822 1
17676 17824 17825 1
17677 17824 17826 1
17678 17824 17832 1
17679 17824 17843 1
17680 17825 17827 1
17681 17825 17828 1
17682 17825 17829 1
17683 17829 17830 1
17684 17829 17831 1
17685 17832 17833 1
17686 17832 17834 1
17687 17832 17835 1
17688 17836 17838 1
17689 17836 17844 1
17690 17836 17855 1
17691 17836 17837 1
17692 17837 17841 1
17693 17837 17840 1
17694 17837 17839 1
17695 17841 17843 1
17696 17841 17842 1
17697 17844 17845 1
17698 17844 17847 1
17699 17844 17846 1
17700 17848 17850 1
17701 17848 17849 1
17702 17848 17856 1
17703 17848 17867 1
17704 17849 17851 1
17705 17849 17852 1
17706 17849 17853 1
17707 17853 17854 1
17708 17853 17855 1
17709 17856 17858 1
17710 17856 17857 1
17711 17856 17859 1
17712 17860 17862 1
17713 17860 17868 1
17714 17860 17879 1
17715 17860 17861 1
17716 17861 17864 1
17717 17861 17865 1
17718 17861 17863 1
17719 17865 17867 1
17720 17865 17866 1
17721 17868 17869 1
17722 17868 17870 1
17723 17868 17871 1
17724 17872 17873 1
17725 17872 17874 1
17726 17872 17880 1
17727 17872 17891 1
17728 17873 17875 1
17729 17873 17876 1
17730 17873 17877 1
17731 17877 17879 1
17732 17877 17878 1
17733 17880 17882 1
17734 17880 17883 1
17735 17880 17881 1
17736 17884 17903 1
17737 17884 17885 1
17738 17884 17892 1
17739 17884 17886 1
17740 17885 17887 1
17741 17885 17888 1
17742 17885 17889 1
17743 17889 17890 1
17744 17889 17891 1
17745 17892 17895 1
17746 17892 17893 1
17747 17892 17894 1
17748 17896 17898 1
17749 17896 17904 1
17750 17896 17915 1
17751 17896 17897 1
17752 17897 17901 1
17753 17897 17900 1
17754 17897 17899 1
17755 17901 17903 1
17756 17901 17902 1
17757 17904 17906 1
17758 17904 17907 1
17759 17904 17905 1
17760 17908 17927 1
17761 17908 17909 1
17762 17908 17910 1
17763 17908 17916 1
17764 17909 17911 1
17765 17909 17913 1
17766 17909 17912 1
17767 17913 17914 1
17768 17913 17915 1
17769 17916 17917 1
17770 17916 17919 1
17771 17916 17918 1
17772 17920 17928 1
17773 17920 17922 1
17774 17920 17921 1
17775 17920 17939 1
17776 17921 17925 1
17777 17921 17924 1
17778 17921 17923 1
17779 17925 17927 1
17780 17925 17926 1
17781 17928 17931 1
17782 17928 17930 1
17783 17928 17929 1
17784 17932 17951 1
17785 17932 17934 1
17786 17932 17933 1
17787 17932 17940 1
17788 17933 17935 1
17789 17933 17937 1
17790 17933 17936 1
17791 17937 17938 1
17792 17937 17939 1
17793 17940 17941 1
17794 17940 17942 1
17795 17940 17943 1
17796 17944 17963 1
17797 17944 17945 1
17798 17944 17946 1
17799 17944 17952 1
17800 17945 17949 1
17801 17945 17947 1
17802 17945 17948 1
17803 17949 17951 1
17804 17949 17950 1
17805 17952 17954 1
17806 17952 17955 1
17807 17952 17953 1
17808 17956 17975 1
17809 17956 17958 1
17810 17956 17964 1
17811 17956 17957 1
17812 17957 17961 1
17813 17957 17960 1
17814 17957 17959 1
17815 17961 17962 1
17816 17961 17963 1
17817 17964 17965 1
17818 17964 17966 1
17819 17964 17967 1
17820 17968 17969 1
17821 17968 17987 1
17822 17968 17970 1
17823 17968 17976 1
17824 17969 17973 1
17825 17969 17971 1
17826 17969 17972 1
17827 17973 17975 1
17828 17973 17974 1
17829 17976 17977 1
17830 17976 17978 1
17831 17976 17979 1
17832 17980 17999 1
17833 17980 17988 1
17834 17980 17982 1
17835 17980 17981 1
17836 17981 17985 1
17837 17981 17984 1
17838 17981 17983 1
17839 17985 17986 1
17840 17985 17987 1
17841 17988 17991 1
17842 17988 17990 1
17843 17988 17989 1
17844 17992 18011 1
17845 17992 17994 1
17846 17992 17993 1
17847 17992 18000 1
17848 17993 17996 1
17849 17993 17995 1
17850 17993 17997 1
17851 17997 17999 1
17852 17997 17998 1
17853 18000 18002 1
17854 18000 18003 1
17855 18000 18001 1
17856 18004 18023 1
17857 18004 18012 1
17858 18004 18005 1
17859 18004 18006 1
17860 18005 18009 1
17861 18005 18007 1
17862 18005 18008 1
17863 18009 18010 1
17864 18009 18011 1
17865 18012 18015 1
17866 18012 18014 1
17867 18012 18013 1
17868 18016 18035 1
17869 18016 18018 1
17870 18016 18017 1
17871 18016 18024 1
17872 18017 18019 1
17873 18017 18020 1
17874 18017 18021 1
17875 18021 18023 1
17876 18021 18022 1
17877 18024 18025 1
17878 18024 18026 1
17879 18024 18027 1
17880 18028 18029 1
17881 18028 18030 1
17882 18028 18047 1
17883 18028 18036 1
17884 18029 18031 1
17885 18029 18033 1
17886 18029 18032 1
17887 18033 18034 1
17888 18033 18035 1
17889 18036 18039 1
17890 18036 18037 1
17891 18036 18038 1
17892 18040 18059 1
17893 18040 18048 1
17894 18040 18041 1
17895 18040 18042 1
17896 18041 18043 1
17897 18041 18044 1
17898 18041 18045 1
17899 18045 18047 1
17900 18045 18046 1
17901 18048 18051 1
17902 18048 18049 1
17903 18048 18050 1
17904 18052 18053 1
17905 18052 18054 1
17906 18052 18071 1
17907 18052 18060 1
17908 18053 18055 1
17909 18053 18057 1
17910 18053 18056 1
17911 18057 18058 1
17912 18057 18059 1
17913 18060 18061 1
17914 18060 18062 1
17915 18060 18063 1
17916 18064 18072 1
17917 18064 18083 1
17918 18064 18066 1
17919 18064 18065 1
17920 18065 18067 1
17921 18065 18068 1
17922 18065 18069 1
17923 18069 18071 1
17924 18069 18070 1
17925 18072 18073 1
17926 18072 18075 1
17927 18072 18074 1
17928 18076 18078 1
17929 18076 18077 1
17930 18076 18084 1
17931 18077 18081 1
17932 18077 18080 1
17933 18077 18079 1
17934 18081 18082 1
17935 18081 18083 1
17936 18084 18085 1
17937 18084 18086 1
17938 18084 18087 1
17939 18088 18089 1
17940 18089 18091 1
17941 18089 18090 1
17942 18089 18097 1
17943 18090 18093 1
17944 18090 18092 1
17945 18090 18094 1
17946 18094 18096 1
17947 18094 18095 1
17948 18097 18098 1
17949 18097 18099 1
17950 18097 18100 1
17951 18101 18103 1
17952 18101 18110 1
17953 18101 18102 1
17954 18102 18106 1
17955 18102 18104 1
17956 18102 18105 1
17957 18106 18107 1
17958 18106 18108 1
17959 18108 18109 1
17960 18110 18113 1
17961 18110 18111 1
17962 18110 18112 1
17963 18114 18133 1
17964 18114 18122 1
17965 18114 18115 1
17966 18114 18116 1
17967 18115 18118 1
17968 18115 18117 1
17969 18115 18119 1
17970 18119 18120 1
17971 18119 18121 1
17972 18122 18123 1
17973 18122 18124 1
17974 18122 18125 1
17975 18126 18134 1
17976 18126 18145 1
17977 18126 18127 1
17978 18126 18128 1
17979 18127 18131 1
17980 18127 18129 1
17981 18127 18130 1
17982 18131 18132 1
17983 18131 18133 1
17984 18134 18137 1
17985 18134 18135 1
17986 18134 18136 1
17987 18138 18146 1
17988 18138 18157 1
17989 18138 18139 1
17990 18138 18140 1
17991 18139 18142 1
17992 18139 18141 1
17993 18139 18143 1
17994 18143 18144 1
17995 18143 18145 1
17996 18146 18148 1
17997 18146 18147 1
17998 18146 18149 1
17999 18150 18158 1
18000 18150 18151 1
18001 18150 18152 1
18002 18150 18169 1
18003 18151 18155 1
18004 18151 18154 1
18005 18151 18153 1
18006 18155 18157 1
18007 18155 18156 1
18008 18158 18160 1
18009 18158 18159 1
18010 18158 18161 1
18011 18162 18170 1
18012 18162 18164 1
18013 18162 18163 1
18014 18162 18181 1
18015 18163 18165 1
18016 18163 18166 1
18017 18163 18167 1
18018 18167 18169 1
18019 18167 18168 1
18020 18170 18173 1
18021 18170 18171 1
18022 18170 18172 1
18023 18174 18175 1
18024 18174 18182 1
18025 18174 18176 1
18026 18174 18193 1
18027 18175 18178 1
18028 18175 18177 1
18029 18175 18179 1
18030 18179 18181 1
18031 18179 18180 1
18032 18182 18184 1
18033 18182 18183 1
18034 18182 18185 1
18035 18186 18187 1
18036 18186 18205 1
18037 18186 18188 1
18038 18186 18194 1
18039 18187 18191 1
18040 18187 18190 1
18041 18187 18189 1
18042 18191 18193 1
18043 18191 18192 1
18044 18194 18195 1
18045 18194 18197 1
18046 18194 18196 1
18047 18198 18199 1
18048 18198 18206 1
18049 18198 18200 1
18050 18198 18217 1
18051 18199 18201 1
18052 18199 18202 1
18053 18199 18203 1
18054 18203 18205 1
18055 18203 18204 1
18056 18206 18208 1
18057 18206 18207 1
18058 18206 18209 1
18059 18210 18229 1
18060 18210 18211 1
18061 18210 18212 1
18062 18210 18218 1
18063 18211 18215 1
18064 18211 18214 1
18065 18211 18213 1
18066 18215 18217 1
18067 18215 18216 1
18068 18218 18221 1
18069 18218 18219 1
18070 18218 18220 1
18071 18222 18224 1
18072 18222 18230 1
18073 18222 18223 1
18074 18222 18241 1
18075 18223 18225 1
18076 18223 18226 1
18077 18223 18227 1
18078 18227 18228 1
18079 18227 18229 1
18080 18230 18232 1
18081 18230 18231 1
18082 18230 18233 1
18083 18234 18235 1
18084 18234 18253 1
18085 18234 18236 1
18086 18234 18242 1
18087 18235 18238 1
18088 18235 18237 1
18089 18235 18239 1
18090 18239 18240 1
18091 18239 18241 1
18092 18242 18243 1
18093 18242 18245 1
18094 18242 18244 1
18095 18246 18254 1
18096 18246 18248 1
18097 18246 18247 1
18098 18246 18265 1
18099 18247 18249 1
18100 18247 18251 1
18101 18247 18250 1
18102 18251 18253 1
18103 18251 18252 1
18104 18254 18256 1
18105 18254 18255 1
18106 18254 18257 1
18107 18258 18260 1
18108 18258 18277 1
18109 18258 18259 1
18110 18258 18266 1
18111 18259 18261 1
18112 18259 18262 1
18113 18259 18263 1
18114 18263 18264 1
18115 18263 18265 1
18116 18266 18269 1
18117 18266 18268 1
18118 18266 18267 1
18119 18270 18278 1
18120 18270 18272 1
18121 18270 18289 1
18122 18270 18271 1
18123 18271 18274 1
18124 18271 18275 1
18125 18271 18273 1
18126 18275 18277 1
18127 18275 18276 1
18128 18278 18280 1
18129 18278 18279 1
18130 18278 18281 1
18131 18282 18283 1
18132 18282 18301 1
18133 18282 18284 1
18134 18282 18290 1
18135 18283 18285 1
18136 18283 18286 1
18137 18283 18287 1
18138 18287 18288 1
18139 18287 18289 1
18140 18290 18291 1
18141 18290 18293 1
18142 18290 18292 1
18143 18294 18302 1
18144 18294 18296 1
18145 18294 18313 1
18146 18294 18295 1
18147 18295 18297 1
18148 18295 18298 1
18149 18295 18299 1
18150 18299 18301 1
18151 18299 18300 1
18152 18302 18304 1
18153 18302 18303 1
18154 18302 18305 1
18155 18306 18325 1
18156 18306 18308 1
18157 18306 18307 1
18158 18306 18314 1
18159 18307 18311 1
18160 18307 18309 1
18161 18307 18310 1
18162 18311 18312 1
18163 18311 18313 1
18164 18314 18316 1
18165 18314 18315 1
18166 18314 18317 1
18167 18318 18319 1
18168 18318 18337 1
18169 18318 18320 1
18170 18318 18326 1
18171 18319 18323 1
18172 18319 18321 1
18173 18319 18322 1
18174 18323 18325 1
18175 18323 18324 1
18176 18326 18328 1
18177 18326 18329 1
18178 18326 18327 1
18179 18330 18338 1
18180 18330 18349 1
18181 18330 18332 1
18182 18330 18331 1
18183 18331 18334 1
18184 18331 18335 1
18185 18331 18333 1
18186 18335 18336 1
18187 18335 18337 1
18188 18338 18340 1
18189 18338 18341 1
18190 18338 18339 1
18191 18342 18361 1
18192 18342 18343 1
18193 18342 18344 1
18194 18342 18350 1
18195 18343 18347 1
18196 18343 18345 1
18197 18343 18346 1
18198 18347 18349 1
18199 18347 18348 1
18200 18350 18352 1
18201 18350 18353 1
18202 18350 18351 1
18203 18354 18355 1
18204 18354 18356 1
18205 18354 18373 1
18206 18354 18362 1
18207 18355 18357 1
18208 18355 18359 1
18209 18355 18358 1
18210 18359 18360 1
18211 18359 18361 1
18212 18362 18364 1
18213 18362 18365 1
18214 18362 18363 1
18215 18366 18367 1
18216 18366 18385 1
18217 18366 18368 1
18218 18366 18374 1
18219 18367 18371 1
18220 18367 18370 1
18221 18367 18369 1
18222 18371 18373 1
18223 18371 18372 1
18224 18374 18375 1
18225 18374 18377 1
18226 18374 18376 1
18227 18378 18379 1
18228 18378 18380 1
18229 18378 18386 1
18230 18378 18397 1
18231 18379 18381 1
18232 18379 18383 1
18233 18379 18382 1
18234 18383 18384 1
18235 18383 18385 1
18236 18386 18387 1
18237 18386 18389 1
18238 18386 18388 1
18239 18390 18409 1
18240 18390 18392 1
18241 18390 18398 1
18242 18390 18391 1
18243 18391 18393 1
18244 18391 18394 1
18245 18391 18395 1
18246 18395 18397 1
18247 18395 18396 1
18248 18398 18399 1
18249 18398 18400 1
18250 18398 18401 1
18251 18402 18403 1
18252 18402 18404 1
18253 18402 18421 1
18254 18402 18410 1
18255 18403 18407 1
18256 18403 18405 1
18257 18403 18406 1
18258 18407 18408 1
18259 18407 18409 1
18260 18410 18411 1
18261 18410 18413 1
18262 18410 18412 1
18263 18414 18433 1
18264 18414 18422 1
18265 18414 18415 1
18266 18414 18416 1
18267 18415 18417 1
18268 18415 18418 1
18269 18415 18419 1
18270 18419 18420 1
18271 18419 18421 1
18272 18422 18425 1
18273 18422 18424 1
18274 18422 18423 1
18275 18426 18428 1
18276 18426 18427 1
18277 18426 18434 1
18278 18426 18445 1
18279 18427 18431 1
18280 18427 18429 1
18281 18427 18430 1
18282 18431 18432 1
18283 18431 18433 1
18284 18434 18437 1
18285 18434 18435 1
18286 18434 18436 1
18287 18438 18446 1
18288 18438 18440 1
18289 18438 18439 1
18290 18439 18441 1
18291 18439 18442 1
18292 18439 18443 1
18293 18443 18444 1
18294 18443 18445 1
18295 18446 18449 1
18296 18446 18447 1
18297 18446 18448 1
18298 18450 18451 1
18299 18451 18459 1
18300 18451 18452 1
18301 18451 18453 1
18302 18452 18456 1
18303 18452 18454 1
18304 18452 18455 1
18305 18456 18457 1
18306 18456 18458 1
18307 18459 18460 1
18308 18459 18462 1
18309 18459 18461 1
18310 18463 18465 1
18311 18463 18464 1
18312 18463 18472 1
18313 18464 18467 1
18314 18464 18466 1
18315 18464 18468 1
18316 18468 18470 1
18317 18468 18469 1
18318 18470 18471 1
18319 18472 18473 1
18320 18472 18474 1
18321 18472 18475 1
18322 18476 18478 1
18323 18476 18477 1
18324 18476 18484 1
18325 18476 18495 1
18326 18477 18480 1
18327 18477 18479 1
18328 18477 18481 1
18329 18481 18482 1
18330 18481 18483 1
18331 18484 18487 1
18332 18484 18486 1
18333 18484 18485 1
18334 18488 18490 1
18335 18488 18489 1
18336 18488 18496 1
18337 18488 18507 1
18338 18489 18491 1
18339 18489 18492 1
18340 18489 18493 1
18341 18493 18495 1
18342 18493 18494 1
18343 18496 18498 1
18344 18496 18497 1
18345 18496 18499 1
18346 18500 18508 1
18347 18500 18502 1
18348 18500 18501 1
18349 18500 18519 1
18350 18501 18504 1
18351 18501 18503 1
18352 18501 18505 1
18353 18505 18506 1
18354 18505 18507 1
18355 18508 18509 1
18356 18508 18511 1
18357 18508 18510 1
18358 18512 18514 1
18359 18512 18520 1
18360 18512 18513 1
18361 18512 18531 1
18362 18513 18515 1
18363 18513 18516 1
18364 18513 18517 1
18365 18517 18519 1
18366 18517 18518 1
18367 18520 18523 1
18368 18520 18521 1
18369 18520 18522 1
18370 18524 18532 1
18371 18524 18526 1
18372 18524 18525 1
18373 18524 18543 1
18374 18525 18527 1
18375 18525 18528 1
18376 18525 18529 1
18377 18529 18530 1
18378 18529 18531 1
18379 18532 18534 1
18380 18532 18535 1
18381 18532 18533 1
18382 18536 18538 1
18383 18536 18537 1
18384 18536 18544 1
18385 18536 18555 1
18386 18537 18539 1
18387 18537 18540 1
18388 18537 18541 1
18389 18541 18543 1
18390 18541 18542 1
18391 18544 18547 1
18392 18544 18545 1
18393 18544 18546 1
18394 18548 18549 1
18395 18548 18550 1
18396 18548 18556 1
18397 18548 18567 1
18398 18549 18551 1
18399 18549 18552 1
18400 18549 18553 1
18401 18553 18554 1
18402 18553 18555 1
18403 18556 18557 1
18404 18556 18558 1
18405 18556 18559 1
18406 18560 18562 1
18407 18560 18561 1
18408 18560 18568 1
18409 18560 18579 1
18410 18561 18563 1
18411 18561 18565 1
18412 18561 18564 1
18413 18565 18567 1
18414 18565 18566 1
18415 18568 18569 1
18416 18568 18570 1
18417 18568 18571 1
18418 18572 18574 1
18419 18572 18573 1
18420 18572 18580 1
18421 18572 18591 1
18422 18573 18575 1
18423 18573 18576 1
18424 18573 18577 1
18425 18577 18579 1
18426 18577 18578 1
18427 18580 18582 1
18428 18580 18581 1
18429 18580 18583 1
18430 18584 18586 1
18431 18584 18592 1
18432 18584 18603 1
18433 18584 18585 1
18434 18585 18588 1
18435 18585 18589 1
18436 18585 18587 1
18437 18589 18591 1
18438 18589 18590 1
18439 18592 18593 1
18440 18592 18594 1
18441 18592 18595 1
18442 18596 18598 1
18443 18596 18604 1
18444 18596 18597 1
18445 18596 18615 1
18446 18597 18601 1
18447 18597 18600 1
18448 18597 18599 1
18449 18601 18603 1
18450 18601 18602 1
18451 18604 18605 1
18452 18604 18606 1
18453 18604 18607 1
18454 18608 18627 1
18455 18608 18609 1
18456 18608 18616 1
18457 18608 18610 1
18458 18609 18611 1
18459 18609 18612 1
18460 18609 18613 1
18461 18613 18615 1
18462 18613 18614 1
18463 18616 18619 1
18464 18616 18617 1
18465 18616 18618 1
18466 18620 18622 1
18467 18620 18628 1
18468 18620 18639 1
18469 18620 18621 1
18470 18621 18625 1
18471 18621 18624 1
18472 18621 18623 1
18473 18625 18627 1
18474 18625 18626 1
18475 18628 18630 1
18476 18628 18631 1
18477 18628 18629 1
18478 18632 18651 1
18479 18632 18633 1
18480 18632 18640 1
18481 18632 18634 1
18482 18633 18635 1
18483 18633 18637 1
18484 18633 18636 1
18485 18637 18638 1
18486 18637 18639 1
18487 18640 18641 1
18488 18640 18643 1
18489 18640 18642 1
18490 18644 18645 1
18491 18644 18663 1
18492 18644 18646 1
18493 18644 18652 1
18494 18645 18649 1
18495 18645 18648 1
18496 18645 18647 1
18497 18649 18651 1
18498 18649 18650 1
18499 18652 18655 1
18500 18652 18654 1
18501 18652 18653 1
18502 18656 18675 1
18503 18656 18658 1
18504 18656 18657 1
18505 18656 18664 1
18506 18657 18659 1
18507 18657 18661 1
18508 18657 18660 1
18509 18661 18662 1
18510 18661 18663 1
18511 18664 18665 1
18512 18664 18666 1
18513 18664 18667 1
18514 18668 18687 1
18515 18668 18669 1
18516 18668 18670 1
18517 18668 18676 1
18518 18669 18673 1
18519 18669 18671 1
18520 18669 18672 1
18521 18673 18675 1
18522 18673 18674 1
18523 18676 18678 1
18524 18676 18677 1
18525 18676 18679 1
18526 18680 18699 1
18527 18680 18682 1
18528 18680 18688 1
18529 18680 18681 1
18530 18681 18685 1
18531 18681 18684 1
18532 18681 18683 1
18533 18685 18686 1
18534 18685 18687 1
18535 18688 18689 1
18536 18688 18690 1
18537 18688 18691 1
18538 18692 18693 1
18539 18692 18711 1
18540 18692 18694 1
18541 18692 18700 1
18542 18693 18697 1
18543 18693 18695 1
18544 18693 18696 1
18545 18697 18699 1
18546 18697 18698 1
18547 18700 18701 1
18548 18700 18702 1
18549 18700 18703 1
18550 18704 18723 1
18551 18704 18706 1
18552 18704 18712 1
18553 18704 18705 1
18554 18705 18709 1
18555 18705 18708 1
18556 18705 18707 1
18557 18709 18710 1
18558 18709 18711 1
18559 18712 18714 1
18560 18712 18715 1
18561 18712 18713 1
18562 18716 18735 1
18563 18716 18718 1
18564 18716 18717 1
18565 18716 18724 1
18566 18717 18720 1
18567 18717 18719 1
18568 18717 18721 1
18569 18721 18723 1
18570 18721 18722 1
18571 18724 18726 1
18572 18724 18727 1
18573 18724 18725 1
18574 18728 18747 1
18575 18728 18736 1
18576 18728 18729 1
18577 18728 18730 1
18578 18729 18732 1
18579 18729 18733 1
18580 18729 18731 1
18581 18733 18734 1
18582 18733 18735 1
18583 18736 18739 1
18584 18736 18738 1
18585 18736 18737 1
18586 18740 18759 1
18587 18740 18742 1
18588 18740 18748 1
18589 18740 18741 1
18590 18741 18743 1
18591 18741 18744 1
18592 18741 18745 1
18593 18745 18747 1
18594 18745 18746 1
18595 18748 18751 1
18596 18748 18749 1
18597 18748 18750 1
18598 18752 18753 1
18599 18752 18754 1
18600 18752 18771 1
18601 18752 18760 1
18602 18753 18755 1
18603 18753 18757 1
18604 18753 18756 1
18605 18757 18758 1
18606 18757 18759 1
18607 18760 18763 1
18608 18760 18761 1
18609 18760 18762 1
18610 18764 18783 1
18611 18764 18772 1
18612 18764 18765 1
18613 18764 18766 1
18614 18765 18767 1
18615 18765 18768 1
18616 18765 18769 1
18617 18769 18771 1
18618 18769 18770 1
18619 18772 18775 1
18620 18772 18774 1
18621 18772 18773 1
18622 18776 18777 1
18623 18776 18778 1
18624 18776 18795 1
18625 18776 18784 1
18626 18777 18779 1
18627 18777 18781 1
18628 18777 18780 1
18629 18781 18782 1
18630 18781 18783 1
18631 18784 18785 1
18632 18784 18787 1
18633 18784 18786 1
18634 18788 18790 1
18635 18788 18789 1
18636 18788 18796 1
18637 18788 18807 1
18638 18789 18791 1
18639 18789 18792 1
18640 18789 18793 1
18641 18793 18795 1
18642 18793 18794 1
18643 18796 18797 1
18644 18796 18799 1
18645 18796 18798 1
18646 18800 18802 1
18647 18800 18801 1
18648 18800 18808 1
18649 18801 18803 1
18650 18801 18804 1
18651 18801 18805 1
18652 18805 18806 1
18653 18805 18807 1
18654 18808 18809 1
18655 18808 18810 1
18656 18808 18811 1
18657 18812 18813 1
18658 18813 18815 1
18659 18813 18814 1
18660 18813 18821 1
18661 18814 18817 1
18662 18814 18816 1
18663 18814 18818 1
18664 18818 18820 1
18665 18818 18819 1
18666 18821 18822 1
18667 18821 18823 1
18668 18821 18824 1
18669 18825 18834 1
18670 18825 18826 1
18671 18825 18827 1
18672 18826 18830 1
18673 18826 18828 1
18674 18826 18829 1
18675 18830 18831 1
18676 18830 18832 1
18677 18832 18833 1
18678 18834 18835 1
18679 18834 18837 1
18680 18834 18836 1
18681 18838 18857 1
18682 18838 18846 1
18683 18838 18839 1
18684 18838 18840 1
18685 18839 18842 1
18686 18839 18841 1
18687 18839 18843 1
18688 18843 18844 1
18689 18843 18845 1
18690 18846 18847 1
18691 18846 18849 1
18692 18846 18848 1
18693 18850 18858 1
18694 18850 18869 1
18695 18850 18851 1
18696 18850 18852 1
18697 18851 18855 1
18698 18851 18853 1
18699 18851 18854 1
18700 18855 18856 1
18701 18855 18857 1
18702 18858 18860 1
18703 18858 18861 1
18704 18858 18859 1
18705 18862 18870 1
18706 18862 18881 1
18707 18862 18863 1
18708 18862 18864 1
18709 18863 18866 1
18710 18863 18865 1
18711 18863 18867 1
18712 18867 18868 1
18713 18867 18869 1
18714 18870 18872 1
18715 18870 18871 1
18716 18870 18873 1
18717 18874 18882 1
18718 18874 18875 1
18719 18874 18893 1
18720 18874 18876 1
18721 18875 18879 1
18722 18875 18878 1
18723 18875 18877 1
18724 18879 18881 1
18725 18879 18880 1
18726 18882 18884 1
18727 18882 18883 1
18728 18882 18885 1
18729 18886 18894 1
18730 18886 18905 1
18731 18886 18887 1
18732 18886 18888 1
18733 18887 18891 1
18734 18887 18890 1
18735 18887 18889 1
18736 18891 18892 1
18737 18891 18893 1
18738 18894 18896 1
18739 18894 18895 1
18740 18894 18897 1
18741 18898 18917 1
18742 18898 18899 1
18743 18898 18906 1
18744 18898 18900 1
18745 18899 18902 1
18746 18899 18901 1
18747 18899 18903 1
18748 18903 18905 1
18749 18903 18904 1
18750 18906 18908 1
18751 18906 18907 1
18752 18906 18909 1
18753 18910 18911 1
18754 18910 18929 1
18755 18910 18912 1
18756 18910 18918 1
18757 18911 18915 1
18758 18911 18914 1
18759 18911 18913 1
18760 18915 18916 1
18761 18915 18917 1
18762 18918 18919 1
18763 18918 18921 1
18764 18918 18920 1
18765 18922 18941 1
18766 18922 18923 1
18767 18922 18930 1
18768 18922 18924 1
18769 18923 18925 1
18770 18923 18926 1
18771 18923 18927 1
18772 18927 18929 1
18773 18927 18928 1
18774 18930 18932 1
18775 18930 18931 1
18776 18930 18933 1
18777 18934 18953 1
18778 18934 18935 1
18779 18934 18936 1
18780 18934 18942 1
18781 18935 18938 1
18782 18935 18939 1
18783 18935 18937 1
18784 18939 18940 1
18785 18939 18941 1
18786 18942 18945 1
18787 18942 18943 1
18788 18942 18944 1
18789 18946 18948 1
18790 18946 18947 1
18791 18946 18954 1
18792 18946 18965 1
18793 18947 18949 1
18794 18947 18950 1
18795 18947 18951 1
18796 18951 18952 1
18797 18951 18953 1
18798 18954 18955 1
18799 18954 18957 1
18800 18954 18956 1
18801 18958 18959 1
18802 18958 18977 1
18803 18958 18960 1
18804 18958 18966 1
18805 18959 18962 1
18806 18959 18961 1
18807 18959 18963 1
18808 18963 18964 1
18809 18963 18965 1
18810 18966 18967 1
18811 18966 18969 1
18812 18966 18968 1
18813 18970 18972 1
18814 18970 18971 1
18815 18970 18978 1
18816 18970 18989 1
18817 18971 18973 1
18818 18971 18975 1
18819 18971 18974 1
18820 18975 18977 1
18821 18975 18976 1
18822 18978 18981 1
18823 18978 18979 1
18824 18978 18980 1
18825 18982 18984 1
18826 18982 19001 1
18827 18982 18983 1
18828 18982 18990 1
18829 18983 18985 1
18830 18983 18986 1
18831 18983 18987 1
18832 18987 18988 1
18833 18987 18989 1
18834 18990 18993 1
18835 18990 18991 1
18836 18990 18992 1
18837 18994 18996 1
18838 18994 19002 1
18839 18994 19013 1
18840 18994 18995 1
18841 18995 18998 1
18842 18995 18999 1
18843 18995 18997 1
18844 18999 19001 1
18845 18999 19000 1
18846 19002 19003 1
18847 19002 19005 1
18848 19002 19004 1
18849 19006 19025 1
18850 19006 19008 1
18851 19006 19007 1
18852 19006 19014 1
18853 19007 19011 1
18854 19007 19010 1
18855 19007 19009 1
18856 19011 19012 1
18857 19011 19013 1
18858 19014 19015 1
18859 19014 19017 1
18860 19014 19016 1
18861 19018 19026 1
18862 19018 19020 1
18863 19018 19037 1
18864 19018 19019 1
18865 19019 19021 1
18866 19019 19022 1
18867 19019 19023 1
18868 19023 19025 1
18869 19023 19024 1
18870 19026 19028 1
18871 19026 19027 1
18872 19026 19029 1
18873 19030 19049 1
18874 19030 19032 1
18875 19030 19031 1
18876 19030 19038 1
18877 19031 19035 1
18878 19031 19033 1
18879 19031 19034 1
18880 19035 19036 1
18881 19035 19037 1
18882 19038 19039 1
18883 19038 19041 1
18884 19038 19040 1
18885 19042 19050 1
18886 19042 19044 1
18887 19042 19043 1
18888 19042 19061 1
18889 19043 19047 1
18890 19043 19045 1
18891 19043 19046 1
18892 19047 19049 1
18893 19047 19048 1
18894 19050 19052 1
18895 19050 19053 1
18896 19050 19051 1
18897 19054 19062 1
18898 19054 19056 1
18899 19054 19055 1
18900 19054 19073 1
18901 19055 19058 1
18902 19055 19059 1
18903 19055 19057 1
18904 19059 19060 1
18905 19059 19061 1
18906 19062 19064 1
18907 19062 19065 1
18908 19062 19063 1
18909 19066 19085 1
18910 19066 19067 1
18911 19066 19068 1
18912 19066 19074 1
18913 19067 19071 1
18914 19067 19069 1
18915 19067 19070 1
18916 19071 19073 1
18917 19071 19072 1
18918 19074 19076 1
18919 19074 19077 1
18920 19074 19075 1
18921 19078 19097 1
18922 19078 19079 1
18923 19078 19080 1
18924 19078 19086 1
18925 19079 19081 1
18926 19079 19083 1
18927 19079 19082 1
18928 19083 19084 1
18929 19083 19085 1
18930 19086 19088 1
18931 19086 19089 1
18932 19086 19087 1
18933 19090 19091 1
18934 19090 19109 1
18935 19090 19092 1
18936 19090 19098 1
18937 19091 19095 1
18938 19091 19093 1
18939 19091 19094 1
18940 19095 19097 1
18941 19095 19096 1
18942 19098 19099 1
18943 19098 19101 1
18944 19098 19100 1
18945 19102 19121 1
18946 19102 19103 1
18947 19102 19104 1
18948 19102 19110 1
18949 19103 19105 1
18950 19103 19107 1
18951 19103 19106 1
18952 19107 19108 1
18953 19107 19109 1
18954 19110 19111 1
18955 19110 19113 1
18956 19110 19112 1
18957 19114 19133 1
18958 19114 19116 1
18959 19114 19122 1
18960 19114 19115 1
18961 19115 19117 1
18962 19115 19118 1
18963 19115 19119 1
18964 19119 19120 1
18965 19119 19121 1
18966 19122 19123 1
18967 19122 19124 1
18968 19122 19125 1
18969 19126 19127 1
18970 19126 19128 1
18971 19126 19145 1
18972 19126 19134 1
18973 19127 19131 1
18974 19127 19129 1
18975 19127 19130 1
18976 19131 19132 1
18977 19131 19133 1
18978 19134 19135 1
18979 19134 19136 1
18980 19134 19137 1
18981 19138 19157 1
18982 19138 19146 1
18983 19138 19139 1
18984 19138 19140 1
18985 19139 19141 1
18986 19139 19142 1
18987 19139 19143 1
18988 19143 19144 1
18989 19143 19145 1
18990 19146 19149 1
18991 19146 19148 1
18992 19146 19147 1
18993 19150 19152 1
18994 19150 19151 1
18995 19150 19158 1
18996 19150 19169 1
18997 19151 19155 1
18998 19151 19153 1
18999 19151 19154 1
19000 19155 19156 1
19001 19155 19157 1
19002 19158 19161 1
19003 19158 19159 1
19004 19158 19160 1
19005 19162 19170 1
19006 19162 19164 1
19007 19162 19163 1
19008 19163 19165 1
19009 19163 19166 1
19010 19163 19167 1
19011 19167 19168 1
19012 19167 19169 1
19013 19170 19173 1
19014 19170 19171 1
19015 19170 19172 1
19016 19174 19175 1
19017 19175 19183 1
19018 19175 19176 1
19019 19175 19177 1
19020 19176 19180 1
19021 19176 19178 1
19022 19176 19179 1
19023 19180 19181 1
19024 19180 19182 1
19025 19183 19184 1
19026 19183 19186 1
19027 19183 19185 1
19028 19187 19189 1
19029 19187 19188 1
19030 19187 19196 1
19031 19188 19191 1
19032 19188 19190 1
19033 19188 19192 1
19034 19192 19194 1
19035 19192 19193 1
19036 19194 19195 1
19037 19196 19197 1
19038 19196 19198 1
19039 19196 19199 1
19040 19200 19202 1
19041 19200 19201 1
19042 19200 19219 1
19043 19200 19208 1
19044 19201 19204 1
19045 19201 19203 1
19046 19201 19205 1
19047 19205 19206 1
19048 19205 19207 1
19049 19208 19209 1
19050 19208 19210 1
19051 19208 19211 1
19052 19212 19214 1
19053 19212 19220 1
19054 19212 19213 1
19055 19212 19231 1
19056 19213 19215 1
19057 19213 19216 1
19058 19213 19217 1
19059 19217 19219 1
19060 19217 19218 1
19061 19220 19223 1
19062 19220 19221 1
19063 19220 19222 1
19064 19224 19232 1
19065 19224 19226 1
19066 19224 19225 1
19067 19224 19243 1
19068 19225 19228 1
19069 19225 19227 1
19070 19225 19229 1
19071 19229 19230 1
19072 19229 19231 1
19073 19232 19233 1
19074 19232 19235 1
19075 19232 19234 1
19076 19236 19238 1
19077 19236 19244 1
19078 19236 19237 1
19079 19236 19255 1
19080 19237 19239 1
19081 19237 19240 1
19082 19237 19241 1
19083 19241 19243 1
19084 19241 19242 1
19085 19244 19247 1
19086 19244 19245 1
19087 19244 19246 1
19088 19248 19256 1
19089 19248 19250 1
19090 19248 19249 1
19091 19248 19267 1
19092 19249 19251 1
19093 19249 19252 1
19094 19249 19253 1
19095 19253 19254 1
19096 19253 19255 1
19097 19256 19259 1
19098 19256 19257 1
19099 19256 19258 1
19100 19260 19262 1
19101 19260 19261 1
19102 19260 19268 1
19103 19260 19279 1
19104 19261 19263 1
19105 19261 19264 1
19106 19261 19265 1
19107 19265 19267 1
19108 19265 19266 1
19109 19268 19270 1
19110 19268 19271 1
19111 19268 19269 1
19112 19272 19273 1
19113 19272 19274 1
19114 19272 19280 1
19115 19272 19291 1
19116 19273 19275 1
19117 19273 19276 1
19118 19273 19277 1
19119 19277 19278 1
19120 19277 19279 1
19121 19280 19281 1
19122 19280 19282 1
19123 19280 19283 1
19124 19284 19286 1
19125 19284 19285 1
19126 19284 19292 1
19127 19284 19303 1
19128 19285 19287 1
19129 19285 19288 1
19130 19285 19289 1
19131 19289 19291 1
19132 19289 19290 1
19133 19292 19293 1
19134 19292 19294 1
19135 19292 19295 1
19136 19296 19298 1
19137 19296 19297 1
19138 19296 19304 1
19139 19296 19315 1
19140 19297 19299 1
19141 19297 19300 1
19142 19297 19301 1
19143 19301 19303 1
19144 19301 19302 1
19145 19304 19306 1
19146 19304 19305 1
19147 19304 19307 1
19148 19308 19310 1
19149 19308 19316 1
19150 19308 19327 1
19151 19308 19309 1
19152 19309 19312 1
19153 19309 19313 1
19154 19309 19311 1
19155 19313 19315 1
19156 19313 19314 1
19157 19316 19317 1
19158 19316 19318 1
19159 19316 19319 1
19160 19320 19322 1
19161 19320 19328 1
19162 19320 19321 1
19163 19320 19339 1
19164 19321 19325 1
19165 19321 19324 1
19166 19321 19323 1
19167 19325 19327 1
19168 19325 19326 1
19169 19328 19329 1
19170 19328 19330 1
19171 19328 19331 1
19172 19332 19340 1
19173 19332 19334 1
19174 19332 19351 1
19175 19332 19333 1
19176 19333 19336 1
19177 19333 19337 1
19178 19333 19335 1
19179 19337 19339 1
19180 19337 19338 1
19181 19340 19343 1
19182 19340 19341 1
19183 19340 19342 1
19184 19344 19346 1
19185 19344 19352 1
19186 19344 19363 1
19187 19344 19345 1
19188 19345 19349 1
19189 19345 19347 1
19190 19345 19348 1
19191 19349 19351 1
19192 19349 19350 1
19193 19352 19355 1
19194 19352 19354 1
19195 19352 19353 1
19196 19356 19375 1
19197 19356 19357 1
19198 19356 19364 1
19199 19356 19358 1
19200 19357 19359 1
19201 19357 19360 1
19202 19357 19361 1
19203 19361 19363 1
19204 19361 19362 1
19205 19364 19365 1
19206 19364 19367 1
19207 19364 19366 1
19208 19368 19369 1
19209 19368 19387 1
19210 19368 19370 1
19211 19368 19376 1
19212 19369 19373 1
19213 19369 19371 1
19214 19369 19372 1
19215 19373 19375 1
19216 19373 19374 1
19217 19376 19377 1
19218 19376 19379 1
19219 19376 19378 1
19220 19380 19399 1
19221 19380 19382 1
19222 19380 19381 1
19223 19380 19388 1
19224 19381 19383 1
19225 19381 19385 1
19226 19381 19384 1
19227 19385 19386 1
19228 19385 19387 1
19229 19388 19389 1
19230 19388 19390 1
19231 19388 19391 1
19232 19392 19411 1
19233 19392 19393 1
19234 19392 19394 1
19235 19392 19400 1
19236 19393 19395 1
19237 19393 19396 1
19238 19393 19397 1
19239 19397 19398 1
19240 19397 19399 1
19241 19400 19402 1
19242 19400 19401 1
19243 19400 19403 1
19244 19404 19423 1
19245 19404 19406 1
19246 19404 19412 1
19247 19404 19405 1
19248 19405 19409 1
19249 19405 19408 1
19250 19405 19407 1
19251 19409 19410 1
19252 19409 19411 1
19253 19412 19413 1
19254 19412 19414 1
19255 19412 19415 1
19256 19416 19435 1
19257 19416 19418 1
19258 19416 19417 1
19259 19416 19424 1
19260 19417 19420 1
19261 19417 19421 1
19262 19417 19419 1
19263 19421 19422 1
19264 19421 19423 1
19265 19424 19425 1
19266 19424 19426 1
19267 19424 19427 1
19268 19428 19447 1
19269 19428 19430 1
19270 19428 19436 1
19271 19428 19429 1
19272 19429 19433 1
19273 19429 19432 1
19274 19429 19431 1
19275 19433 19434 1
19276 19433 19435 1
19277 19436 19438 1
19278 19436 19439 1
19279 19436 19437 1
19280 19440 19459 1
19281 19440 19442 1
19282 19440 19441 1
19283 19440 19448 1
19284 19441 19444 1
19285 19441 19443 1
19286 19441 19445 1
19287 19445 19446 1
19288 19445 19447 1
19289 19448 19450 1
19290 19448 19451 1
19291 19448 19449 1
19292 19452 19471 1
19293 19452 19460 1
19294 19452 19454 1
19295 19452 19453 1
19296 19453 19456 1
19297 19453 19457 1
19298 19453 19455 1
19299 19457 19458 1
19300 19457 19459 1
19301 19460 19463 1
19302 19460 19462 1
19303 19460 19461 1
19304 19464 19483 1
19305 19464 19472 1
19306 19464 19466 1
19307 19464 19465 1
19308 19465 19467 1
19309 19465 19468 1
19310 19465 19469 1
19311 19469 19470 1
19312 19469 19471 1
19313 19472 19475 1
19314 19472 19473 1
19315 19472 19474 1
19316 19476 19495 1
19317 19476 19484 1
19318 19476 19477 1
19319 19476 19478 1
19320 19477 19479 1
19321 19477 19480 1
19322 19477 19481 1
19323 19481 19482 1
19324 19481 19483 1
19325 19484 19487 1
19326 19484 19486 1
19327 19484 19485 1
19328 19488 19489 1
19329 19488 19490 1
19330 19488 19496 1
19331 19488 19507 1
19332 19489 19491 1
19333 19489 19492 1
19334 19489 19493 1
19335 19493 19494 1
19336 19493 19495 1
19337 19496 19497 1
19338 19496 19499 1
19339 19496 19498 1
19340 19500 19501 1
19341 19500 19502 1
19342 19500 19519 1
19343 19500 19508 1
19344 19501 19503 1
19345 19501 19504 1
19346 19501 19505 1
19347 19505 19506 1
19348 19505 19507 1
19349 19508 19509 1
19350 19508 19511 1
19351 19508 19510 1
19352 19512 19514 1
19353 19512 19513 1
19354 19512 19520 1
19355 19512 19531 1
19356 19513 19515 1
19357 19513 19516 1
19358 19513 19517 1
19359 19517 19519 1
19360 19517 19518 1
19361 19520 19521 1
19362 19520 19523 1
19363 19520 19522 1
19364 19524 19526 1
19365 19524 19525 1
19366 19524 19532 1
19367 19525 19527 1
19368 19525 19528 1
19369 19525 19529 1
19370 19529 19530 1
19371 19529 19531 1
19372 19532 19533 1
19373 19532 19534 1
19374 19532 19535 1
19375 19536 19537 1
19376 19537 19539 1
19377 19537 19538 1
19378 19537 19545 1
19379 19538 19541 1
19380 19538 19540 1
19381 19538 19542 1
19382 19542 19544 1
19383 19542 19543 1
19384 19545 19546 1
19385 19545 19547 1
19386 19545 19548 1
19387 19549 19558 1
19388 19549 19551 1
19389 19549 19550 1
19390 19550 19553 1
19391 19550 19552 1
19392 19550 19554 1
19393 19554 19555 1
19394 19554 19556 1
19395 19556 19557 1
19396 19558 19559 1
19397 19558 19561 1
19398 19558 19560 1
19399 19562 19581 1
19400 19562 19570 1
19401 19562 19563 1
19402 19562 19564 1
19403 19563 19566 1
19404 19563 19565 1
19405 19563 19567 1
19406 19567 19568 1
19407 19567 19569 1
19408 19570 19571 1
19409 19570 19573 1
19410 19570 19572 1
19411 19574 19582 1
19412 19574 19593 1
19413 19574 19576 1
19414 19574 19575 1
19415 19575 19577 1
19416 19575 19578 1
19417 19575 19579 1
19418 19579 19580 1
19419 19579 19581 1
19420 19582 19584 1
19421 19582 19583 1
19422 19582 19585 1
19423 19586 19594 1
19424 19586 19587 1
19425 19586 19605 1
19426 19586 19588 1
19427 19587 19591 1
19428 19587 19590 1
19429 19587 19589 1
19430 19591 19592 1
19431 19591 19593 1
19432 19594 19596 1
19433 19594 19595 1
19434 19594 19597 1
19435 19598 19606 1
19436 19598 19599 1
19437 19598 19617 1
19438 19598 19600 1
19439 19599 19603 1
19440 19599 19601 1
19441 19599 19602 1
19442 19603 19605 1
19443 19603 19604 1
19444 19606 19608 1
19445 19606 19607 1
19446 19606 19609 1
19447 19610 19618 1
19448 19610 19629 1
19449 19610 19611 1
19450 19610 19612 1
19451 19611 19615 1
19452 19611 19614 1
19453 19611 19613 1
19454 19615 19616 1
19455 19615 19617 1
19456 19618 19620 1
19457 19618 19619 1
19458 19618 19621 1
19459 19622 19641 1
19460 19622 19623 1
19461 19622 19630 1
19462 19622 19624 1
19463 19623 19627 1
19464 19623 19626 1
19465 19623 19625 1
19466 19627 19629 1
19467 19627 19628 1
19468 19630 19632 1
19469 19630 19633 1
19470 19630 19631 1
19471 19634 19635 1
19472 19634 19653 1
19473 19634 19642 1
19474 19634 19636 1
19475 19635 19638 1
19476 19635 19639 1
19477 19635 19637 1
19478 19639 19640 1
19479 19639 19641 1
19480 19642 19644 1
19481 19642 19643 1
19482 19642 19645 1
19483 19646 19665 1
19484 19646 19647 1
19485 19646 19654 1
19486 19646 19648 1
19487 19647 19650 1
19488 19647 19649 1
19489 19647 19651 1
19490 19651 19653 1
19491 19651 19652 1
19492 19654 19655 1
19493 19654 19657 1
19494 19654 19656 1
19495 19658 19677 1
19496 19658 19659 1
19497 19658 19660 1
19498 19658 19666 1
19499 19659 19661 1
19500 19659 19662 1
19501 19659 19663 1
19502 19663 19664 1
19503 19663 19665 1
19504 19666 19669 1
19505 19666 19667 1
19506 19666 19668 1
19507 19670 19689 1
19508 19670 19671 1
19509 19670 19678 1
19510 19670 19672 1
19511 19671 19673 1
19512 19671 19674 1
19513 19671 19675 1
19514 19675 19676 1
19515 19675 19677 1
19516 19678 19679 1
19517 19678 19681 1
19518 19678 19680 1
19519 19682 19683 1
19520 19682 19684 1
19521 19682 19701 1
19522 19682 19690 1
19523 19683 19686 1
19524 19683 19685 1
19525 19683 19687 1
19526 19687 19688 1
19527 19687 19689 1
19528 19690 19691 1
19529 19690 19693 1
19530 19690 19692 1
19531 19694 19713 1
19532 19694 19696 1
19533 19694 19695 1
19534 19694 19702 1
19535 19695 19697 1
19536 19695 19699 1
19537 19695 19698 1
19538 19699 19700 1
19539 19699 19701 1
19540 19702 19705 1
19541 19702 19703 1
19542 19702 19704 1
19543 19706 19708 1
19544 19706 19707 1
19545 19706 19725 1
19546 19706 19714 1
19547 19707 19709 1
19548 19707 19710 1
19549 19707 19711 1
19550 19711 19713 1
19551 19711 19712 1
19552 19714 19717 1
19553 19714 19715 1
19554 19714 19716 1
19555 19718 19737 1
19556 19718 19720 1
19557 19718 19726 1
19558 19718 19719 1
19559 19719 19722 1
19560 19719 19723 1
19561 19719 19721 1
19562 19723 19725 1
19563 19723 19724 1
19564 19726 19727 1
19565 19726 19729 1
19566 19726 19728 1
19567 19730 19732 1
19568 19730 19731 1
19569 19730 19749 1
19570 19730 19738 1
19571 19731 19735 1
19572 19731 19734 1
19573 19731 19733 1
19574 19735 19737 1
19575 19735 19736 1
19576 19738 19739 1
19577 19738 19741 1
19578 19738 19740 1
19579 19742 19744 1
19580 19742 19750 1
19581 19742 19761 1
19582 19742 19743 1
19583 19743 19745 1
19584 19743 19746 1
19585 19743 19747 1
19586 19747 19749 1
19587 19747 19748 1
19588 19750 19751 1
19589 19750 19753 1
19590 19750 19752 1
19591 19754 19762 1
19592 19754 19756 1
19593 19754 19773 1
19594 19754 19755 1
19595 19755 19759 1
19596 19755 19757 1
19597 19755 19758 1
19598 19759 19760 1
19599 19759 19761 1
19600 19762 19764 1
19601 19762 19765 1
19602 19762 19763 1
19603 19766 19774 1
19604 19766 19768 1
19605 19766 19767 1
19606 19766 19785 1
19607 19767 19771 1
19608 19767 19770 1
19609 19767 19769 1
19610 19771 19773 1
19611 19771 19772 1
19612 19774 19776 1
19613 19774 19777 1
19614 19774 19775 1
19615 19778 19779 1
19616 19778 19797 1
19617 19778 19780 1
19618 19778 19786 1
19619 19779 19783 1
19620 19779 19781 1
19621 19779 19782 1
19622 19783 19784 1
19623 19783 19785 1
19624 19786 19788 1
19625 19786 19789 1
19626 19786 19787 1
19627 19790 19809 1
19628 19790 19791 1
19629 19790 19792 1
19630 19790 19798 1
19631 19791 19795 1
19632 19791 19793 1
19633 19791 19794 1
19634 19795 19797 1
19635 19795 19796 1
19636 19798 19800 1
19637 19798 19801 1
19638 19798 19799 1
19639 19802 19821 1
19640 19802 19803 1
19641 19802 19804 1
19642 19802 19810 1
19643 19803 19805 1
19644 19803 19807 1
19645 19803 19806 1
19646 19807 19808 1
19647 19807 19809 1
19648 19810 19812 1
19649 19810 19813 1
19650 19810 19811 1
19651 19814 19815 1
19652 19814 19833 1
19653 19814 19816 1
19654 19814 19822 1
19655 19815 19819 1
19656 19815 19817 1
19657 19815 19818 1
19658 19819 19821 1
19659 19819 19820 1
19660 19822 19823 1
19661 19822 19825 1
19662 19822 19824 1
19663 19826 19845 1
19664 19826 19827 1
19665 19826 19828 1
19666 19826 19834 1
19667 19827 19831 1
19668 19827 19829 1
19669 19827 19830 1
19670 19831 19832 1
19671 19831 19833 1
19672 19834 19835 1
19673 19834 19837 1
19674 19834 19836 1
19675 19838 19857 1
19676 19838 19839 1
19677 19838 19840 1
19678 19838 19846 1
19679 19839 19843 1
19680 19839 19841 1
19681 19839 19842 1
19682 19843 19844 1
19683 19843 19845 1
19684 19846 19849 1
19685 19846 19847 1
19686 19846 19848 1
19687 19850 19852 1
19688 19850 19869 1
19689 19850 19851 1
19690 19850 19858 1
19691 19851 19853 1
19692 19851 19854 1
19693 19851 19855 1
19694 19855 19856 1
19695 19855 19857 1
19696 19858 19859 1
19697 19858 19860 1
19698 19858 19861 1
19699 19862 19864 1
19700 19862 19881 1
19701 19862 19870 1
19702 19862 19863 1
19703 19863 19865 1
19704 19863 19866 1
19705 19863 19867 1
19706 19867 19868 1
19707 19867 19869 1
19708 19870 19873 1
19709 19870 19872 1
19710 19870 19871 1
19711 19874 19882 1
19712 19874 19893 1
19713 19874 19876 1
19714 19874 19875 1
19715 19875 19877 1
19716 19875 19878 1
19717 19875 19879 1
19718 19879 19880 1
19719 19879 19881 1
19720 19882 19885 1
19721 19882 19883 1
19722 19882 19884 1
19723 19886 19894 1
19724 19886 19888 1
19725 19886 19887 1
19726 19887 19889 1
19727 19887 19890 1
19728 19887 19891 1
19729 19891 19892 1
19730 19891 19893 1
19731 19894 19897 1
19732 19894 19895 1
19733 19894 19896 1
19734 19898 19899 1
19735 19899 19907 1
19736 19899 19901 1
19737 19899 19900 1
19738 19900 19903 1
19739 19900 19902 1
19740 19900 19904 1
19741 19904 19905 1
19742 19904 19906 1
19743 19907 19908 1
19744 19907 19910 1
19745 19907 19909 1
19746 19911 19913 1
19747 19911 19912 1
19748 19911 19920 1
19749 19912 19915 1
19750 19912 19914 1
19751 19912 19916 1
19752 19916 19918 1
19753 19916 19917 1
19754 19918 19919 1
19755 19920 19921 1
19756 19920 19922 1
19757 19920 19923 1
19758 19924 19926 1
19759 19924 19925 1
19760 19924 19943 1
19761 19924 19932 1
19762 19925 19928 1
19763 19925 19927 1
19764 19925 19929 1
19765 19929 19930 1
19766 19929 19931 1
19767 19932 19933 1
19768 19932 19934 1
19769 19932 19935 1
19770 19936 19938 1
19771 19936 19944 1
19772 19936 19937 1
19773 19936 19955 1
19774 19937 19939 1
19775 19937 19940 1
19776 19937 19941 1
19777 19941 19943 1
19778 19941 19942 1
19779 19944 19947 1
19780 19944 19945 1
19781 19944 19946 1
19782 19948 19956 1
19783 19948 19950 1
19784 19948 19949 1
19785 19948 19967 1
19786 19949 19952 1
19787 19949 19951 1
19788 19949 19953 1
19789 19953 19954 1
19790 19953 19955 1
19791 19956 19957 1
19792 19956 19959 1
19793 19956 19958 1
19794 19960 19962 1
19795 19960 19968 1
19796 19960 19961 1
19797 19960 19979 1
19798 19961 19963 1
19799 19961 19964 1
19800 19961 19965 1
19801 19965 19967 1
19802 19965 19966 1
19803 19968 19971 1
19804 19968 19969 1
19805 19968 19970 1
19806 19972 19980 1
19807 19972 19974 1
19808 19972 19973 1
19809 19972 19991 1
19810 19973 19975 1
19811 19973 19976 1
19812 19973 19977 1
19813 19977 19978 1
19814 19977 19979 1
19815 19980 19983 1
19816 19980 19981 1
19817 19980 19982 1
19818 19984 19986 1
19819 19984 19985 1
19820 19984 19992 1
19821 19984 20003 1
19822 19985 19987 1
19823 19985 19988 1
19824 19985 19989 1
19825 19989 19991 1
19826 19989 19990 1
19827 19992 19994 1
19828 19992 19995 1
19829 19992 19993 1
19830 19996 19997 1
19831 19996 19998 1
19832 19996 20004 1
19833 19996 20015 1
19834 19997 19999 1
19835 19997 20000 1
19836 19997 20001 1
19837 20001 20003 1
19838 20001 20002 1
19839 20004 20005 1
19840 20004 20006 1
19841 20004 20007 1
19842 20008 20010 1
19843 20008 20009 1
19844 20008 20016 1
19845 20008 20027 1
19846 20009 20011 1
19847 20009 20012 1
19848 20009 20013 1
19849 20013 20015 1
19850 20013 20014 1
19851 20016 20017 1
19852 20016 20018 1
19853 20016 20019 1
19854 20020 20022 1
19855 20020 20028 1
19856 20020 20039 1
19857 20020 20021 1
19858 20021 20025 1
19859 20021 20024 1
19860 20021 20023 1
19861 20025 20027 1
19862 20025 20026 1
19863 20028 20030 1
19864 20028 20031 1
19865 20028 20029 1
19866 20032 20034 1
19867 20032 20040 1
19868 20032 20051 1
19869 20032 20033 1
19870 20033 20036 1
19871 20033 20037 1
19872 20033 20035 1
19873 20037 20039 1
19874 20037 20038 1
19875 20040 20041 1
19876 20040 20042 1
19877 20040 20043 1
19878 20044 20046 1
19879 20044 20052 1
19880 20044 20045 1
19881 20044 20063 1
19882 20045 20049 1
19883 20045 20048 1
19884 20045 20047 1
19885 20049 20051 1
19886 20049 20050 1
19887 20052 20053 1
19888 20052 20054 1
19889 20052 20055 1
19890 20056 20064 1
19891 20056 20058 1
19892 20056 20075 1
19893 20056 20057 1
19894 20057 20060 1
19895 20057 20061 1
19896 20057 20059 1
19897 20061 20063 1
19898 20061 20062 1
19899 20064 20065 1
19900 20064 20066 1
19901 20064 20067 1
19902 20068 20087 1
19903 20068 20069 1
19904 20068 20070 1
19905 20068 20076 1
19906 20069 20073 1
19907 20069 20071 1
19908 20069 20072 1
19909 20073 20075 1
19910 20073 20074 1
19911 20076 20079 1
19912 20076 20078 1
19913 20076 20077 1
19914 20080 20088 1
19915 20080 20082 1
19916 20080 20099 1
19917 20080 20081 1
19918 20081 20083 1
19919 20081 20084 1
19920 20081 20085 1
19921 20085 20087 1
19922 20085 20086 1
19923 20088 20089 1
19924 20088 20091 1
19925 20088 20090 1
19926 20092 20093 1
19927 20092 20111 1
19928 20092 20094 1
19929 20092 20100 1
19930 20093 20095 1
19931 20093 20096 1
19932 20093 20097 1
19933 20097 20098 1
19934 20097 20099 1
19935 20100 20101 1
19936 20100 20103 1
19937 20100 20102 1
19938 20104 20123 1
19939 20104 20106 1
19940 20104 20105 1
19941 20104 20112 1
19942 20105 20107 1
19943 20105 20109 1
19944 20105 20108 1
19945 20109 20111 1
19946 20109 20110 1
19947 20112 20113 1
19948 20112 20114 1
19949 20112 20115 1
19950 20116 20135 1
19951 20116 20117 1
19952 20116 20118 1
19953 20116 20124 1
19954 20117 20119 1
19955 20117 20120 1
19956 20117 20121 1
19957 20121 20122 1
19958 20121 20123 1
19959 20124 20126 1
19960 20124 20125 1
19961 20124 20127 1
19962 20128 20129 1
19963 20128 20147 1
19964 20128 20130 1
19965 20128 20136 1
19966 20129 20133 1
19967 20129 20131 1
19968 20129 20132 1
19969 20133 20135 1
19970 20133 20134 1
19971 20136 20137 1
19972 20136 20138 1
19973 20136 20139 1
19974 20140 20159 1
19975 20140 20142 1
19976 20140 20141 1
19977 20140 20148 1
19978 20141 20144 1
19979 20141 20145 1
19980 20141 20143 1
19981 20145 20146 1
19982 20145 20147 1
19983 20148 20149 1
19984 20148 20150 1
19985 20148 20151 1
19986 20152 20171 1
19987 20152 20154 1
19988 20152 20160 1
19989 20152 20153 1
19990 20153 20157 1
19991 20153 20156 1
19992 20153 20155 1
19993 20157 20158 1
19994 20157 20159 1
19995 20160 20162 1
19996 20160 20163 1
19997 20160 20161 1
19998 20164 20183 1
19999 20164 20172 1
20000 20164 20166 1
20001 20164 20165 1
20002 20165 20168 1
20003 20165 20167 1
20004 20165 20169 1
20005 20169 20170 1
20006 20169 20171 1
20007 20172 20175 1
20008 20172 20173 1
20009 20172 20174 1
20010 20176 20195 1
20011 20176 20178 1
20012 20176 20184 1
20013 20176 20177 1
20014 20177 20180 1
20015 20177 20181 1
20016 20177 20179 1
20017 20181 20182 1
20018 20181 20183 1
20019 20184 20185 1
20020 20184 20186 1
20021 20184 20187 1
20022 20188 20207 1
20023 20188 20196 1
20024 20188 20190 1
20025 20188 20189 1
20026 20189 20191 1
20027 20189 20192 1
20028 20189 20193 1
20029 20193 20194 1
20030 20193 20195 1
20031 20196 20199 1
20032 20196 20198 1
20033 20196 20197 1
20034 20200 20219 1
20035 20200 20208 1
20036 20200 20201 1
20037 20200 20202 1
20038 20201 20203 1
20039 20201 20204 1
20040 20201 20205 1
20041 20205 20207 1
20042 20205 20206 1
20043 20208 20211 1
20044 20208 20210 1
20045 20208 20209 1
20046 20212 20213 1
20047 20212 20214 1
20048 20212 20220 1
20049 20212 20231 1
20050 20213 20215 1
20051 20213 20216 1
20052 20213 20217 1
20053 20217 20218 1
20054 20217 20219 1
20055 20220 20221 1
20056 20220 20223 1
20057 20220 20222 1
20058 20224 20225 1
20059 20224 20226 1
20060 20224 20243 1
20061 20224 20232 1
20062 20225 20227 1
20063 20225 20228 1
20064 20225 20229 1
20065 20229 20231 1
20066 20229 20230 1
20067 20232 20233 1
20068 20232 20235 1
20069 20232 20234 1
20070 20236 20238 1
20071 20236 20237 1
20072 20236 20244 1
20073 20236 20255 1
20074 20237 20239 1
20075 20237 20241 1
20076 20237 20240 1
20077 20241 20242 1
20078 20241 20243 1
20079 20244 20245 1
20080 20244 20246 1
20081 20244 20247 1
20082 20248 20250 1
20083 20248 20249 1
20084 20248 20256 1
20085 20249 20251 1
20086 20249 20252 1
20087 20249 20253 1
20088 20253 20254 1
20089 20253 20255 1
20090 20256 20257 1
20091 20256 20258 1
20092 20256 20259 1
20093 20260 20261 1
20094 20261 20263 1
20095 20261 20262 1
20096 20261 20269 1
20097 20262 20265 1
20098 20262 20264 1
20099 20262 20266 1
20100 20266 20268 1
20101 20266 20267 1
20102 20269 20270 1
20103 20269 20271 1
20104 20269 20272 1
20105 20273 20274 1
20106 20273 20282 1
20107 20273 20275 1
20108 20274 20278 1
20109 20274 20276 1
20110 20274 20277 1
20111 20278 20279 1
20112 20278 20280 1
20113 20280 20281 1
20114 20282 20285 1
20115 20282 20283 1
20116 20282 20284 1
20117 20286 20287 1
20118 20286 20288 1
20119 20286 20305 1
20120 20286 20294 1
20121 20287 20289 1
20122 20287 20290 1
20123 20287 20291 1
20124 20291 20293 1
20125 20291 20292 1
20126 20294 20295 1
20127 20294 20296 1
20128 20294 20297 1
20129 20298 20300 1
20130 20298 20299 1
20131 20298 20306 1
20132 20298 20317 1
20133 20299 20302 1
20134 20299 20303 1
20135 20299 20301 1
20136 20303 20305 1
20137 20303 20304 1
20138 20306 20309 1
20139 20306 20307 1
20140 20306 20308 1
20141 20310 20311 1
20142 20310 20312 1
20143 20310 20329 1
20144 20310 20318 1
20145 20311 20313 1
20146 20311 20314 1
20147 20311 20315 1
20148 20315 20317 1
20149 20315 20316 1
20150 20318 20319 1
20151 20318 20320 1
20152 20318 20321 1
20153 20322 20330 1
20154 20322 20323 1
20155 20322 20324 1
20156 20322 20341 1
20157 20323 20326 1
20158 20323 20325 1
20159 20323 20327 1
20160 20327 20328 1
20161 20327 20329 1
20162 20330 20331 1
20163 20330 20332 1
20164 20330 20333 1
20165 20334 20336 1
20166 20334 20335 1
20167 20334 20342 1
20168 20334 20353 1
20169 20335 20337 1
20170 20335 20338 1
20171 20335 20339 1
20172 20339 20341 1
20173 20339 20340 1
20174 20342 20345 1
20175 20342 20343 1
20176 20342 20344 1
20177 20346 20354 1
20178 20346 20347 1
20179 20346 20348 1
20180 20346 20365 1
20181 20347 20349 1
20182 20347 20350 1
20183 20347 20351 1
20184 20351 20352 1
20185 20351 20353 1
20186 20354 20356 1
20187 20354 20355 1
20188 20354 20357 1
20189 20358 20360 1
20190 20358 20366 1
20191 20358 20359 1
20192 20358 20377 1
20193 20359 20362 1
20194 20359 20363 1
20195 20359 20361 1
20196 20363 20365 1
20197 20363 20364 1
20198 20366 20367 1
20199 20366 20369 1
20200 20366 20368 1
20201 20370 20378 1
20202 20370 20372 1
20203 20370 20371 1
20204 20370 20389 1
20205 20371 20373 1
20206 20371 20374 1
20207 20371 20375 1
20208 20375 20376 1
20209 20375 20377 1
20210 20378 20379 1
20211 20378 20380 1
20212 20378 20381 1
20213 20382 20390 1
20214 20382 20384 1
20215 20382 20383 1
20216 20382 20401 1
20217 20383 20386 1
20218 20383 20387 1
20219 20383 20385 1
20220 20387 20389 1
20221 20387 20388 1
20222 20390 20393 1
20223 20390 20391 1
20224 20390 20392 1
20225 20394 20396 1
20226 20394 20395 1
20227 20394 20402 1
20228 20394 20413 1
20229 20395 20397 1
20230 20395 20398 1
20231 20395 20399 1
20232 20399 20401 1
20233 20399 20400 1
20234 20402 20404 1
20235 20402 20403 1
20236 20402 20405 1
20237 20406 20425 1
20238 20406 20407 1
20239 20406 20408 1
20240 20406 20414 1
20241 20407 20410 1
20242 20407 20409 1
20243 20407 20411 1
20244 20411 20412 1
20245 20411 20413 1
20246 20414 20415 1
20247 20414 20416 1
20248 20414 20417 1
20249 20418 20420 1
20250 20418 20426 1
20251 20418 20437 1
20252 20418 20419 1
20253 20419 20423 1
20254 20419 20422 1
20255 20419 20421 1
20256 20423 20425 1
20257 20423 20424 1
20258 20426 20428 1
20259 20426 20427 1
20260 20426 20429 1
20261 20430 20431 1
20262 20430 20449 1
20263 20430 20432 1
20264 20430 20438 1
20265 20431 20433 1
20266 20431 20434 1
20267 20431 20435 1
20268 20435 20436 1
20269 20435 20437 1
20270 20438 20440 1
20271 20438 20441 1
20272 20438 20439 1
20273 20442 20444 1
20274 20442 20450 1
20275 20442 20461 1
20276 20442 20443 1
20277 20443 20446 1
20278 20443 20447 1
20279 20443 20445 1
20280 20447 20449 1
20281 20447 20448 1
20282 20450 20452 1
20283 20450 20451 1
20284 20450 20453 1
20285 20454 20455 1
20286 20454 20456 1
20287 20454 20473 1
20288 20454 20462 1
20289 20455 20457 1
20290 20455 20458 1
20291 20455 20459 1
20292 20459 20460 1
20293 20459 20461 1
20294 20462 20463 1
20295 20462 20464 1
20296 20462 20465 1
20297 20466 20468 1
20298 20466 20474 1
20299 20466 20485 1
20300 20466 20467 1
20301 20467 20469 1
20302 20467 20470 1
20303 20467 20471 1
20304 20471 20473 1
20305 20471 20472 1
20306 20474 20477 1
20307 20474 20476 1
20308 20474 20475 1
20309 20478 20480 1
20310 20478 20497 1
20311 20478 20479 1
20312 20478 20486 1
20313 20479 20482 1
20314 20479 20483 1
20315 20479 20481 1
20316 20483 20484 1
20317 20483 20485 1
20318 20486 20489 1
20319 20486 20488 1
20320 20486 20487 1
20321 20490 20491 1
20322 20490 20492 1
20323 20490 20509 1
20324 20490 20498 1
20325 20491 20493 1
20326 20491 20495 1
20327 20491 20494 1
20328 20495 20497 1
20329 20495 20496 1
20330 20498 20499 1
20331 20498 20501 1
20332 20498 20500 1
20333 20502 20504 1
20334 20502 20521 1
20335 20502 20503 1
20336 20502 20510 1
20337 20503 20506 1
20338 20503 20505 1
20339 20503 20507 1
20340 20507 20508 1
20341 20507 20509 1
20342 20510 20511 1
20343 20510 20513 1
20344 20510 20512 1
20345 20514 20516 1
20346 20514 20515 1
20347 20514 20533 1
20348 20514 20522 1
20349 20515 20517 1
20350 20515 20519 1
20351 20515 20518 1
20352 20519 20521 1
20353 20519 20520 1
20354 20522 20524 1
20355 20522 20525 1
20356 20522 20523 1
20357 20526 20534 1
20358 20526 20545 1
20359 20526 20528 1
20360 20526 20527 1
20361 20527 20529 1
20362 20527 20530 1
20363 20527 20531 1
20364 20531 20532 1
20365 20531 20533 1
20366 20534 20537 1
20367 20534 20536 1
20368 20534 20535 1
20369 20538 20540 1
20370 20538 20557 1
20371 20538 20546 1
20372 20538 20539 1
20373 20539 20542 1
20374 20539 20541 1
20375 20539 20543 1
20376 20543 20545 1
20377 20543 20544 1
20378 20546 20547 1
20379 20546 20548 1
20380 20546 20549 1
20381 20550 20552 1
20382 20550 20551 1
20383 20550 20558 1
20384 20550 20569 1
20385 20551 20555 1
20386 20551 20553 1
20387 20551 20554 1
20388 20555 20556 1
20389 20555 20557 1
20390 20558 20559 1
20391 20558 20560 1
20392 20558 20561 1
20393 20562 20564 1
20394 20562 20570 1
20395 20562 20581 1
20396 20562 20563 1
20397 20563 20565 1
20398 20563 20566 1
20399 20563 20567 1
20400 20567 20569 1
20401 20567 20568 1
20402 20570 20573 1
20403 20570 20572 1
20404 20570 20571 1
20405 20574 20576 1
20406 20574 20575 1
20407 20574 20582 1
20408 20574 20593 1
20409 20575 20579 1
20410 20575 20577 1
20411 20575 20578 1
20412 20579 20580 1
20413 20579 20581 1
20414 20582 20583 1
20415 20582 20584 1
20416 20582 20585 1
20417 20586 20594 1
20418 20586 20605 1
20419 20586 20587 1
20420 20586 20588 1
20421 20587 20590 1
20422 20587 20589 1
20423 20587 20591 1
20424 20591 20593 1
20425 20591 20592 1
20426 20594 20595 1
20427 20594 20597 1
20428 20594 20596 1
20429 20598 20599 1
20430 20598 20600 1
20431 20598 20606 1
20432 20598 20617 1
20433 20599 20603 1
20434 20599 20601 1
20435 20599 20602 1
20436 20603 20604 1
20437 20603 20605 1
20438 20606 20607 1
20439 20606 20608 1
20440 20606 20609 1
20441 20610 20618 1
20442 20610 20611 1
20443 20610 20612 1
20444 20611 20613 1
20445 20611 20614 1
20446 20611 20615 1
20447 20615 20617 1
20448 20615 20616 1
20449 20618 20620 1
20450 20618 20621 1
20451 20618 20619 1
20452 20622 20623 1
20453 20623 20624 1
20454 20623 20625 1
20455 20623 20631 1
20456 20624 20628 1
20457 20624 20626 1
20458 20624 20627 1
20459 20628 20629 1
20460 20628 20630 1
20461 20631 20634 1
20462 20631 20632 1
20463 20631 20633 1
20464 20635 20636 1
20465 20635 20637 1
20466 20635 20644 1
20467 20636 20638 1
20468 20636 20639 1
20469 20636 20640 1
20470 20640 20641 1
20471 20640 20642 1
20472 20642 20643 1
20473 20644 20645 1
20474 20644 20647 1
20475 20644 20646 1
20476 20648 20649 1
20477 20648 20650 1
20478 20648 20656 1
20479 20648 20667 1
20480 20649 20653 1
20481 20649 20652 1
20482 20649 20651 1
20483 20653 20654 1
20484 20653 20655 1
20485 20656 20659 1
20486 20656 20657 1
20487 20656 20658 1
20488 20660 20662 1
20489 20660 20661 1
20490 20660 20668 1
20491 20660 20679 1
20492 20661 20663 1
20493 20661 20664 1
20494 20661 20665 1
20495 20665 20666 1
20496 20665 20667 1
20497 20668 20670 1
20498 20668 20669 1
20499 20668 20671 1
20500 20672 20673 1
20501 20672 20674 1
20502 20672 20680 1
20503 20672 20691 1
20504 20673 20676 1
20505 20673 20677 1
20506 20673 20675 1
20507 20677 20679 1
20508 20677 20678 1
20509 20680 20681 1
20510 20680 20683 1
20511 20680 20682 1
20512 20684 20686 1
20513 20684 20692 1
20514 20684 20685 1
20515 20684 20703 1
20516 20685 20688 1
20517 20685 20687 1
20518 20685 20689 1
20519 20689 20690 1
20520 20689 20691 1
20521 20692 20693 1
20522 20692 20695 1
20523 20692 20694 1
20524 20696 20698 1
20525 20696 20697 1
20526 20696 20704 1
20527 20696 20715 1
20528 20697 20699 1
20529 20697 20700 1
20530 20697 20701 1
20531 20701 20703 1
20532 20701 20702 1
20533 20704 20706 1
20534 20704 20705 1
20535 20704 20707 1
20536 20708 20710 1
20537 20708 20716 1
20538 20708 20709 1
20539 20708 20727 1
20540 20709 20711 1
20541 20709 20712 1
20542 20709 20713 1
20543 20713 20715 1
20544 20713 20714 1
20545 20716 20719 1
20546 20716 20717 1
20547 20716 20718 1
20548 20720 20722 1
20549 20720 20721 1
20550 20720 20728 1
20551 20720 20739 1
20552 20721 20724 1
20553 20721 20723 1
20554 20721 20725 1
20555 20725 20727 1
20556 20725 20726 1
20557 20728 20729 1
20558 20728 20730 1
20559 20728 20731 1
20560 20732 20740 1
20561 20732 20734 1
20562 20732 20751 1
20563 20732 20733 1
20564 20733 20737 1
20565 20733 20736 1
20566 20733 20735 1
20567 20737 20739 1
20568 20737 20738 1
20569 20740 20743 1
20570 20740 20741 1
20571 20740 20742 1
20572 20744 20752 1
20573 20744 20746 1
20574 20744 20745 1
20575 20744 20763 1
20576 20745 20747 1
20577 20745 20748 1
20578 20745 20749 1
20579 20749 20751 1
20580 20749 20750 1
20581 20752 20754 1
20582 20752 20753 1
20583 20752 20755 1
20584 20756 20758 1
20585 20756 20764 1
20586 20756 20775 1
20587 20756 20757 1
20588 20757 20760 1
20589 20757 20761 1
20590 20757 20759 1
20591 20761 20763 1
20592 20761 20762 1
20593 20764 20765 1
20594 20764 20766 1
20595 20764 20767 1
20596 20768 20776 1
20597 20768 20769 1
20598 20768 20770 1
20599 20768 20787 1
20600 20769 20771 1
20601 20769 20772 1
20602 20769 20773 1
20603 20773 20775 1
20604 20773 20774 1
20605 20776 20778 1
20606 20776 20777 1
20607 20776 20779 1
20608 20780 20781 1
20609 20780 20799 1
20610 20780 20788 1
20611 20780 20782 1
20612 20781 20783 1
20613 20781 20784 1
20614 20781 20785 1
20615 20785 20786 1
20616 20785 20787 1
20617 20788 20789 1
20618 20788 20790 1
20619 20788 20791 1
20620 20792 20794 1
20621 20792 20800 1
20622 20792 20793 1
20623 20792 20811 1
20624 20793 20796 1
20625 20793 20797 1
20626 20793 20795 1
20627 20797 20799 1
20628 20797 20798 1
20629 20800 20802 1
20630 20800 20803 1
20631 20800 20801 1
20632 20804 20805 1
20633 20804 20806 1
20634 20804 20823 1
20635 20804 20812 1
20636 20805 20807 1
20637 20805 20808 1
20638 20805 20809 1
20639 20809 20810 1
20640 20809 20811 1
20641 20812 20813 1
20642 20812 20814 1
20643 20812 20815 1
20644 20816 20818 1
20645 20816 20824 1
20646 20816 20817 1
20647 20816 20835 1
20648 20817 20820 1
20649 20817 20819 1
20650 20817 20821 1
20651 20821 20823 1
20652 20821 20822 1
20653 20824 20826 1
20654 20824 20827 1
20655 20824 20825 1
20656 20828 20830 1
20657 20828 20829 1
20658 20828 20847 1
20659 20828 20836 1
20660 20829 20831 1
20661 20829 20833 1
20662 20829 20832 1
20663 20833 20834 1
20664 20833 20835 1
20665 20836 20837 1
20666 20836 20839 1
20667 20836 20838 1
20668 20840 20842 1
20669 20840 20841 1
20670 20840 20859 1
20671 20840 20848 1
20672 20841 20843 1
20673 20841 20845 1
20674 20841 20844 1
20675 20845 20847 1
20676 20845 20846 1
20677 20848 20851 1
20678 20848 20850 1
20679 20848 20849 1
20680 20852 20854 1
20681 20852 20871 1
20682 20852 20860 1
20683 20852 20853 1
20684 20853 20856 1
20685 20853 20855 1
20686 20853 20857 1
20687 20857 20858 1
20688 20857 20859 1
20689 20860 20861 1
20690 20860 20863 1
20691 20860 20862 1
20692 20864 20865 1
20693 20864 20866 1
20694 20864 20883 1
20695 20864 20872 1
20696 20865 20867 1
20697 20865 20869 1
20698 20865 20868 1
20699 20869 20871 1
20700 20869 20870 1
20701 20872 20873 1
20702 20872 20875 1
20703 20872 20874 1
20704 20876 20878 1
20705 20876 20884 1
20706 20876 20895 1
20707 20876 20877 1
20708 20877 20879 1
20709 20877 20880 1
20710 20877 20881 1
20711 20881 20882 1
20712 20881 20883 1
20713 20884 20887 1
20714 20884 20886 1
20715 20884 20885 1
20716 20888 20890 1
20717 20888 20907 1
20718 20888 20889 1
20719 20888 20896 1
20720 20889 20891 1
20721 20889 20892 1
20722 20889 20893 1
20723 20893 20895 1
20724 20893 20894 1
20725 20896 20899 1
20726 20896 20897 1
20727 20896 20898 1
20728 20900 20908 1
20729 20900 20919 1
20730 20900 20901 1
20731 20900 20902 1
20732 20901 20903 1
20733 20901 20905 1
20734 20901 20904 1
20735 20905 20906 1
20736 20905 20907 1
20737 20908 20910 1
20738 20908 20911 1
20739 20908 20909 1
20740 20912 20914 1
20741 20912 20931 1
20742 20912 20913 1
20743 20912 20920 1
20744 20913 20916 1
20745 20913 20915 1
20746 20913 20917 1
20747 20917 20919 1
20748 20917 20918 1
20749 20920 20921 1
20750 20920 20922 1
20751 20920 20923 1
20752 20924 20926 1
20753 20924 20925 1
20754 20924 20943 1
20755 20924 20932 1
20756 20925 20927 1
20757 20925 20929 1
20758 20925 20928 1
20759 20929 20930 1
20760 20929 20931 1
20761 20932 20934 1
20762 20932 20933 1
20763 20932 20935 1
20764 20936 20944 1
20765 20936 20955 1
20766 20936 20938 1
20767 20936 20937 1
20768 20937 20940 1
20769 20937 20939 1
20770 20937 20941 1
20771 20941 20943 1
20772 20941 20942 1
20773 20944 20947 1
20774 20944 20945 1
20775 20944 20946 1
20776 20948 20950 1
20777 20948 20949 1
20778 20948 20967 1
20779 20948 20956 1
20780 20949 20953 1
20781 20949 20951 1
20782 20949 20952 1
20783 20953 20954 1
20784 20953 20955 1
20785 20956 20958 1
20786 20956 20957 1
20787 20956 20959 1
20788 20960 20979 1
20789 20960 20968 1
20790 20960 20962 1
20791 20960 20961 1
20792 20961 20963 1
20793 20961 20964 1
20794 20961 20965 1
20795 20965 20967 1
20796 20965 20966 1
20797 20968 20969 1
20798 20968 20970 1
20799 20968 20971 1
20800 20972 20974 1
20801 20972 20973 1
20802 20972 20980 1
20803 20973 20977 1
20804 20973 20975 1
20805 20973 20976 1
20806 20977 20978 1
20807 20977 20979 1
20808 20980 20982 1
20809 20980 20981 1
20810 20980 20983 1
20811 20984 20985 1
20812 20985 20986 1
20813 20985 20987 1
20814 20985 20993 1
20815 20986 20988 1
20816 20986 20989 1
20817 20986 20990 1
20818 20990 20991 1
20819 20990 20992 1
20820 20993 20994 1
20821 20993 20995 1
20822 20993 20996 1
20823 20997 20998 1
20824 20997 21006 1
20825 20997 20999 1
20826 20998 21002 1
20827 20998 21000 1
20828 20998 21001 1
20829 21002 21003 1
20830 21002 21004 1
20831 21004 21005 1
20832 21006 21009 1
20833 21006 21007 1
20834 21006 21008 1
20835 21010 21029 1
20836 21010 21018 1
20837 21010 21011 1
20838 21010 21012 1
20839 21011 21013 1
20840 21011 21014 1
20841 21011 21015 1
20842 21015 21016 1
20843 21015 21017 1
20844 21018 21019 1
20845 21018 21020 1
20846 21018 21021 1
20847 21022 21041 1
20848 21022 21023 1
20849 21022 21030 1
20850 21022 21024 1
20851 21023 21027 1
20852 21023 21025 1
20853 21023 21026 1
20854 21027 21028 1
20855 21027 21029 1
20856 21030 21033 1
20857 21030 21031 1
20858 21030 21032 1
20859 21034 21053 1
20860 21034 21042 1
20861 21034 21035 1
20862 21034 21036 1
20863 21035 21037 1
20864 21035 21038 1
20865 21035 21039 1
20866 21039 21040 1
20867 21039 21041 1
20868 21042 21043 1
20869 21042 21044 1
20870 21042 21045 1
20871 21046 21054 1
20872 21046 21047 1
20873 21046 21048 1
20874 21046 21065 1
20875 21047 21050 1
20876 21047 21051 1
20877 21047 21049 1
20878 21051 21053 1
20879 21051 21052 1
20880 21054 21055 1
20881 21054 21056 1
20882 21054 21057 1
20883 21058 21060 1
20884 21058 21059 1
20885 21058 21066 1
20886 21058 21077 1
20887 21059 21061 1
20888 21059 21062 1
20889 21059 21063 1
20890 21063 21065 1
20891 21063 21064 1
20892 21066 21069 1
20893 21066 21067 1
20894 21066 21068 1
20895 21070 21078 1
20896 21070 21071 1
20897 21070 21072 1
20898 21070 21089 1
20899 21071 21074 1
20900 21071 21073 1
20901 21071 21075 1
20902 21075 21076 1
20903 21075 21077 1
20904 21078 21080 1
20905 21078 21079 1
20906 21078 21081 1
20907 21082 21101 1
20908 21082 21083 1
20909 21082 21084 1
20910 21082 21090 1
20911 21083 21086 1
20912 21083 21087 1
20913 21083 21085 1
20914 21087 21089 1
20915 21087 21088 1
20916 21090 21091 1
20917 21090 21093 1
20918 21090 21092 1
20919 21094 21102 1
20920 21094 21095 1
20921 21094 21096 1
20922 21094 21113 1
20923 21095 21097 1
20924 21095 21098 1
20925 21095 21099 1
20926 21099 21100 1
20927 21099 21101 1
20928 21102 21104 1
20929 21102 21103 1
20930 21102 21105 1
20931 21106 21125 1
20932 21106 21107 1
20933 21106 21108 1
20934 21106 21114 1
20935 21107 21110 1
20936 21107 21111 1
20937 21107 21109 1
20938 21111 21113 1
20939 21111 21112 1
20940 21114 21117 1
20941 21114 21115 1
20942 21114 21116 1
20943 21118 21120 1
20944 21118 21119 1
20945 21118 21126 1
20946 21118 21137 1
20947 21119 21121 1
20948 21119 21122 1
20949 21119 21123 1
20950 21123 21124 1
20951 21123 21125 1
20952 21126 21128 1
20953 21126 21127 1
20954 21126 21129 1
20955 21130 21149 1
20956 21130 21131 1
20957 21130 21132 1
20958 21130 21138 1
20959 21131 21134 1
20960 21131 21133 1
20961 21131 21135 1
20962 21135 21136 1
20963 21135 21137 1
20964 21138 21139 1
20965 21138 21141 1
20966 21138 21140 1
20967 21142 21144 1
20968 21142 21143 1
20969 21142 21150 1
20970 21142 21161 1
20971 21143 21145 1
20972 21143 21147 1
20973 21143 21146 1
20974 21147 21149 1
20975 21147 21148 1
20976 21150 21152 1
20977 21150 21151 1
20978 21150 21153 1
20979 21154 21156 1
20980 21154 21155 1
20981 21154 21173 1
20982 21154 21162 1
20983 21155 21157 1
20984 21155 21158 1
20985 21155 21159 1
20986 21159 21160 1
20987 21159 21161 1
20988 21162 21164 1
20989 21162 21165 1
20990 21162 21163 1
20991 21166 21168 1
20992 21166 21174 1
20993 21166 21185 1
20994 21166 21167 1
20995 21167 21170 1
20996 21167 21171 1
20997 21167 21169 1
20998 21171 21173 1
20999 21171 21172 1
21000 21174 21176 1
21001 21174 21175 1
21002 21174 21177 1
21003 21178 21179 1
21004 21178 21180 1
21005 21178 21197 1
21006 21178 21186 1
21007 21179 21181 1
21008 21179 21182 1
21009 21179 21183 1
21010 21183 21184 1
21011 21183 21185 1
21012 21186 21187 1
21013 21186 21188 1
21014 21186 21189 1
21015 21190 21192 1
21016 21190 21198 1
21017 21190 21209 1
21018 21190 21191 1
21019 21191 21193 1
21020 21191 21194 1
21021 21191 21195 1
21022 21195 21197 1
21023 21195 21196 1
21024 21198 21200 1
21025 21198 21199 1
21026 21198 21201 1
21027 21202 21204 1
21028 21202 21221 1
21029 21202 21203 1
21030 21202 21210 1
21031 21203 21205 1
21032 21203 21206 1
21033 21203 21207 1
21034 21207 21208 1
21035 21207 21209 1
21036 21210 21213 1
21037 21210 21212 1
21038 21210 21211 1
21039 21214 21215 1
21040 21214 21216 1
21041 21214 21233 1
21042 21214 21222 1
21043 21215 21217 1
21044 21215 21219 1
21045 21215 21218 1
21046 21219 21221 1
21047 21219 21220 1
21048 21222 21225 1
21049 21222 21224 1
21050 21222 21223 1
21051 21226 21228 1
21052 21226 21234 1
21053 21226 21245 1
21054 21226 21227 1
21055 21227 21230 1
21056 21227 21229 1
21057 21227 21231 1
21058 21231 21232 1
21059 21231 21233 1
21060 21234 21237 1
21061 21234 21236 1
21062 21234 21235 1
21063 21238 21240 1
21064 21238 21239 1
21065 21238 21257 1
21066 21238 21246 1
21067 21239 21241 1
21068 21239 21243 1
21069 21239 21242 1
21070 21243 21245 1
21071 21243 21244 1
21072 21246 21248 1
21073 21246 21249 1
21074 21246 21247 1
21075 21250 21252 1
21076 21250 21251 1
21077 21250 21258 1
21078 21250 21269 1
21079 21251 21253 1
21080 21251 21255 1
21081 21251 21254 1
21082 21255 21256 1
21083 21255 21257 1
21084 21258 21261 1
21085 21258 21260 1
21086 21258 21259 1
21087 21262 21263 1
21088 21262 21264 1
21089 21262 21281 1
21090 21262 21270 1
21091 21263 21267 1
21092 21263 21266 1
21093 21263 21265 1
21094 21267 21269 1
21095 21267 21268 1
21096 21270 21271 1
21097 21270 21272 1
21098 21270 21273 1
21099 21274 21276 1
21100 21274 21275 1
21101 21274 21282 1
21102 21274 21293 1
21103 21275 21279 1
21104 21275 21277 1
21105 21275 21278 1
21106 21279 21280 1
21107 21279 21281 1
21108 21282 21283 1
21109 21282 21284 1
21110 21282 21285 1
21111 21286 21288 1
21112 21286 21305 1
21113 21286 21294 1
21114 21286 21287 1
21115 21287 21289 1
21116 21287 21290 1
21117 21287 21291 1
21118 21291 21293 1
21119 21291 21292 1
21120 21294 21296 1
21121 21294 21295 1
21122 21294 21297 1
21123 21298 21300 1
21124 21298 21299 1
21125 21298 21317 1
21126 21298 21306 1
21127 21299 21303 1
21128 21299 21301 1
21129 21299 21302 1
21130 21303 21304 1
21131 21303 21305 1
21132 21306 21307 1
21133 21306 21308 1
21134 21306 21309 1
21135 21310 21318 1
21136 21310 21329 1
21137 21310 21311 1
21138 21310 21312 1
21139 21311 21314 1
21140 21311 21313 1
21141 21311 21315 1
21142 21315 21316 1
21143 21315 21317 1
21144 21318 21321 1
21145 21318 21320 1
21146 21318 21319 1
21147 21322 21341 1
21148 21322 21323 1
21149 21322 21324 1
21150 21322 21330 1
21151 21323 21327 1
21152 21323 21325 1
21153 21323 21326 1
21154 21327 21328 1
21155 21327 21329 1
21156 21330 21333 1
21157 21330 21331 1
21158 21330 21332 1
21159 21334 21342 1
21160 21334 21335 1
21161 21334 21336 1
21162 21335 21337 1
21163 21335 21338 1
21164 21335 21339 1
21165 21339 21340 1
21166 21339 21341 1
21167 21342 21344 1
21168 21342 21345 1
21169 21342 21343 1
21170 21346 21347 1
21171 21347 21348 1
21172 21347 21355 1
21173 21347 21349 1
21174 21348 21352 1
21175 21348 21350 1
21176 21348 21351 1
21177 21352 21353 1
21178 21352 21354 1
21179 21355 21356 1
21180 21355 21358 1
21181 21355 21357 1
21182 21359 21360 1
21183 21359 21361 1
21184 21359 21368 1
21185 21360 21362 1
21186 21360 21363 1
21187 21360 21364 1
21188 21364 21365 1
21189 21364 21366 1
21190 21366 21367 1
21191 21368 21369 1
21192 21368 21370 1
21193 21368 21371 1
21194 21372 21373 1
21195 21372 21374 1
21196 21372 21380 1
21197 21372 21391 1
21198 21373 21375 1
21199 21373 21376 1
21200 21373 21377 1
21201 21377 21379 1
21202 21377 21378 1
21203 21380 21383 1
21204 21380 21381 1
21205 21380 21382 1
21206 21384 21386 1
21207 21384 21385 1
21208 21384 21392 1
21209 21384 21403 1
21210 21385 21387 1
21211 21385 21388 1
21212 21385 21389 1
21213 21389 21390 1
21214 21389 21391 1
21215 21392 21394 1
21216 21392 21393 1
21217 21392 21395 1
21218 21396 21397 1
21219 21396 21398 1
21220 21396 21404 1
21221 21396 21415 1
21222 21397 21399 1
21223 21397 21400 1
21224 21397 21401 1
21225 21401 21403 1
21226 21401 21402 1
21227 21404 21405 1
21228 21404 21407 1
21229 21404 21406 1
21230 21408 21410 1
21231 21408 21416 1
21232 21408 21409 1
21233 21408 21427 1
21234 21409 21412 1
21235 21409 21411 1
21236 21409 21413 1
21237 21413 21414 1
21238 21413 21415 1
21239 21416 21417 1
21240 21416 21419 1
21241 21416 21418 1
21242 21420 21422 1
21243 21420 21421 1
21244 21420 21428 1
21245 21420 21439 1
21246 21421 21423 1
21247 21421 21424 1
21248 21421 21425 1
21249 21425 21427 1
21250 21425 21426 1
21251 21428 21430 1
21252 21428 21431 1
21253 21428 21429 1
21254 21432 21434 1
21255 21432 21440 1
21256 21432 21433 1
21257 21432 21451 1
21258 21433 21435 1
21259 21433 21436 1
21260 21433 21437 1
21261 21437 21438 1
21262 21437 21439 1
21263 21440 21443 1
21264 21440 21441 1
21265 21440 21442 1
21266 21444 21446 1
21267 21444 21445 1
21268 21444 21452 1
21269 21444 21463 1
21270 21445 21448 1
21271 21445 21447 1
21272 21445 21449 1
21273 21449 21451 1
21274 21449 21450 1
21275 21452 21453 1
21276 21452 21454 1
21277 21452 21455 1
21278 21456 21464 1
21279 21456 21458 1
21280 21456 21457 1
21281 21456 21475 1
21282 21457 21459 1
21283 21457 21461 1
21284 21457 21460 1
21285 21461 21463 1
21286 21461 21462 1
21287 21464 21467 1
21288 21464 21465 1
21289 21464 21466 1
21290 21468 21476 1
21291 21468 21470 1
21292 21468 21469 1
21293 21468 21487 1
21294 21469 21471 1
21295 21469 21472 1
21296 21469 21473 1
21297 21473 21475 1
21298 21473 21474 1
21299 21476 21478 1
21300 21476 21477 1
21301 21476 21479 1
21302 21480 21482 1
21303 21480 21488 1
21304 21480 21499 1
21305 21480 21481 1
21306 21481 21484 1
21307 21481 21485 1
21308 21481 21483 1
21309 21485 21487 1
21310 21485 21486 1
21311 21488 21489 1
21312 21488 21490 1
21313 21488 21491 1
21314 21492 21500 1
21315 21492 21494 1
21316 21492 21493 1
21317 21492 21511 1
21318 21493 21496 1
21319 21493 21497 1
21320 21493 21495 1
21321 21497 21499 1
21322 21497 21498 1
21323 21500 21501 1
21324 21500 21502 1
21325 21500 21503 1
21326 21504 21505 1
21327 21504 21523 1
21328 21504 21512 1
21329 21504 21506 1
21330 21505 21507 1
21331 21505 21509 1
21332 21505 21508 1
21333 21509 21511 1
21334 21509 21510 1
21335 21512 21513 1
21336 21512 21514 1
21337 21512 21515 1
21338 21516 21518 1
21339 21516 21524 1
21340 21516 21517 1
21341 21516 21535 1
21342 21517 21520 1
21343 21517 21521 1
21344 21517 21519 1
21345 21521 21523 1
21346 21521 21522 1
21347 21524 21526 1
21348 21524 21527 1
21349 21524 21525 1
21350 21528 21529 1
21351 21528 21547 1
21352 21528 21536 1
21353 21528 21530 1
21354 21529 21531 1
21355 21529 21532 1
21356 21529 21533 1
21357 21533 21534 1
21358 21533 21535 1
21359 21536 21537 1
21360 21536 21538 1
21361 21536 21539 1
21362 21540 21541 1
21363 21540 21559 1
21364 21540 21542 1
21365 21540 21548 1
21366 21541 21544 1
21367 21541 21543 1
21368 21541 21545 1
21369 21545 21547 1
21370 21545 21546 1
21371 21548 21550 1
21372 21548 21551 1
21373 21548 21549 1
21374 21552 21554 1
21375 21552 21553 1
21376 21552 21571 1
21377 21552 21560 1
21378 21553 21555 1
21379 21553 21557 1
21380 21553 21556 1
21381 21557 21558 1
21382 21557 21559 1
21383 21560 21561 1
21384 21560 21563 1
21385 21560 21562 1
21386 21564 21566 1
21387 21564 21565 1
21388 21564 21583 1
21389 21564 21572 1
21390 21565 21567 1
21391 21565 21569 1
21392 21565 21568 1
21393 21569 21571 1
21394 21569 21570 1
21395 21572 21575 1
21396 21572 21574 1
21397 21572 21573 1
21398 21576 21578 1
21399 21576 21595 1
21400 21576 21584 1
21401 21576 21577 1
21402 21577 21580 1
21403 21577 21581 1
21404 21577 21579 1
21405 21581 21582 1
21406 21581 21583 1
21407 21584 21585 1
21408 21584 21587 1
21409 21584 21586 1
21410 21588 21589 1
21411 21588 21590 1
21412 21588 21607 1
21413 21588 21596 1
21414 21589 21591 1
21415 21589 21593 1
21416 21589 21592 1
21417 21593 21595 1
21418 21593 21594 1
21419 21596 21597 1
21420 21596 21599 1
21421 21596 21598 1
21422 21600 21602 1
21423 21600 21619 1
21424 21600 21608 1
21425 21600 21601 1
21426 21601 21603 1
21427 21601 21604 1
21428 21601 21605 1
21429 21605 21606 1
21430 21605 21607 1
21431 21608 21610 1
21432 21608 21611 1
21433 21608 21609 1
21434 21612 21614 1
21435 21612 21631 1
21436 21612 21613 1
21437 21612 21620 1
21438 21613 21615 1
21439 21613 21616 1
21440 21613 21617 1
21441 21617 21619 1
21442 21617 21618 1
21443 21620 21623 1
21444 21620 21621 1
21445 21620 21622 1
21446 21624 21632 1
21447 21624 21643 1
21448 21624 21625 1
21449 21624 21626 1
21450 21625 21628 1
21451 21625 21627 1
21452 21625 21629 1
21453 21629 21630 1
21454 21629 21631 1
21455 21632 21635 1
21456 21632 21633 1
21457 21632 21634 1
21458 21636 21638 1
21459 21636 21644 1
21460 21636 21655 1
21461 21636 21637 1
21462 21637 21640 1
21463 21637 21639 1
21464 21637 21641 1
21465 21641 21643 1
21466 21641 21642 1
21467 21644 21647 1
21468 21644 21645 1
21469 21644 21646 1
21470 21648 21650 1
21471 21648 21649 1
21472 21648 21667 1
21473 21648 21656 1
21474 21649 21651 1
21475 21649 21653 1
21476 21649 21652 1
21477 21653 21654 1
21478 21653 21655 1
21479 21656 21658 1
21480 21656 21657 1
21481 21656 21659 1
21482 21660 21668 1
21483 21660 21679 1
21484 21660 21662 1
21485 21660 21661 1
21486 21661 21664 1
21487 21661 21663 1
21488 21661 21665 1
21489 21665 21667 1
21490 21665 21666 1
21491 21668 21670 1
21492 21668 21671 1
21493 21668 21669 1
21494 21672 21674 1
21495 21672 21673 1
21496 21672 21691 1
21497 21672 21680 1
21498 21673 21677 1
21499 21673 21675 1
21500 21673 21676 1
21501 21677 21678 1
21502 21677 21679 1
21503 21680 21682 1
21504 21680 21681 1
21505 21680 21683 1
21506 21684 21685 1
21507 21684 21686 1
21508 21684 21692 1
21509 21684 21703 1
21510 21685 21687 1
21511 21685 21688 1
21512 21685 21689 1
21513 21689 21691 1
21514 21689 21690 1
21515 21692 21693 1
21516 21692 21694 1
21517 21692 21695 1
21518 21696 21698 1
21519 21696 21697 1
21520 21696 21704 1
21521 21697 21699 1
21522 21697 21700 1
21523 21697 21701 1
21524 21701 21702 1
21525 21701 21703 1
21526 21704 21706 1
21527 21704 21705 1
21528 21704 21707 1
21529 21708 21709 1
21530 21709 21710 1
21531 21709 21711 1
21532 21709 21717 1
21533 21710 21712 1
21534 21710 21713 1
21535 21710 21714 1
21536 21714 21715 1
21537 21714 21716 1
21538 21717 21718 1
21539 21717 21719 1
21540 21717 21720 1
21541 21721 21722 1
21542 21721 21730 1
21543 21721 21723 1
21544 21722 21726 1
21545 21722 21724 1
21546 21722 21725 1
21547 21726 21727 1
21548 21726 21728 1
21549 21728 21729 1
21550 21730 21731 1
21551 21730 21733 1
21552 21730 21732 1
21553 21734 21753 1
21554 21734 21742 1
21555 21734 21735 1
21556 21734 21736 1
21557 21735 21737 1
21558 21735 21738 1
21559 21735 21739 1
21560 21739 21740 1
21561 21739 21741 1
21562 21742 21743 1
21563 21742 21744 1
21564 21742 21745 1
21565 21746 21765 1
21566 21746 21747 1
21567 21746 21754 1
21568 21746 21748 1
21569 21747 21751 1
21570 21747 21749 1
21571 21747 21750 1
21572 21751 21752 1
21573 21751 21753 1
21574 21754 21756 1
21575 21754 21757 1
21576 21754 21755 1
21577 21758 21777 1
21578 21758 21766 1
21579 21758 21759 1
21580 21758 21760 1
21581 21759 21761 1
21582 21759 21762 1
21583 21759 21763 1
21584 21763 21764 1
21585 21763 21765 1
21586 21766 21767 1
21587 21766 21768 1
21588 21766 21769 1
21589 21770 21789 1
21590 21770 21778 1
21591 21770 21771 1
21592 21770 21772 1
21593 21771 21774 1
21594 21771 21775 1
21595 21771 21773 1
21596 21775 21777 1
21597 21775 21776 1
21598 21778 21779 1
21599 21778 21780 1
21600 21778 21781 1
21601 21782 21801 1
21602 21782 21783 1
21603 21782 21790 1
21604 21782 21784 1
21605 21783 21787 1
21606 21783 21786 1
21607 21783 21785 1
21608 21787 21788 1
21609 21787 21789 1
21610 21790 21792 1
21611 21790 21791 1
21612 21790 21793 1
21613 21794 21813 1
21614 21794 21802 1
21615 21794 21795 1
21616 21794 21796 1
21617 21795 21798 1
21618 21795 21797 1
21619 21795 21799 1
21620 21799 21800 1
21621 21799 21801 1
21622 21802 21804 1
21623 21802 21803 1
21624 21802 21805 1
21625 21806 21825 1
21626 21806 21807 1
21627 21806 21808 1
21628 21806 21814 1
21629 21807 21810 1
21630 21807 21811 1
21631 21807 21809 1
21632 21811 21812 1
21633 21811 21813 1
21634 21814 21815 1
21635 21814 21817 1
21636 21814 21816 1
21637 21818 21826 1
21638 21818 21837 1
21639 21818 21819 1
21640 21818 21820 1
21641 21819 21821 1
21642 21819 21822 1
21643 21819 21823 1
21644 21823 21824 1
21645 21823 21825 1
21646 21826 21828 1
21647 21826 21827 1
21648 21826 21829 1
21649 21830 21849 1
21650 21830 21831 1
21651 21830 21832 1
21652 21830 21838 1
21653 21831 21834 1
21654 21831 21835 1
21655 21831 21833 1
21656 21835 21837 1
21657 21835 21836 1
21658 21838 21841 1
21659 21838 21839 1
21660 21838 21840 1
21661 21842 21844 1
21662 21842 21843 1
21663 21842 21850 1
21664 21842 21861 1
21665 21843 21845 1
21666 21843 21846 1
21667 21843 21847 1
21668 21847 21848 1
21669 21847 21849 1
21670 21850 21851 1
21671 21850 21853 1
21672 21850 21852 1
21673 21854 21873 1
21674 21854 21855 1
21675 21854 21856 1
21676 21854 21862 1
21677 21855 21858 1
21678 21855 21857 1
21679 21855 21859 1
21680 21859 21860 1
21681 21859 21861 1
21682 21862 21863 1
21683 21862 21865 1
21684 21862 21864 1
21685 21866 21868 1
21686 21866 21867 1
21687 21866 21874 1
21688 21866 21885 1
21689 21867 21869 1
21690 21867 21871 1
21691 21867 21870 1
21692 21871 21873 1
21693 21871 21872 1
21694 21874 21875 1
21695 21874 21877 1
21696 21874 21876 1
21697 21878 21880 1
21698 21878 21879 1
21699 21878 21897 1
21700 21878 21886 1
21701 21879 21881 1
21702 21879 21882 1
21703 21879 21883 1
21704 21883 21884 1
21705 21883 21885 1
21706 21886 21889 1
21707 21886 21887 1
21708 21886 21888 1
21709 21890 21892 1
21710 21890 21898 1
21711 21890 21909 1
21712 21890 21891 1
21713 21891 21894 1
21714 21891 21895 1
21715 21891 21893 1
21716 21895 21897 1
21717 21895 21896 1
21718 21898 21899 1
21719 21898 21901 1
21720 21898 21900 1
21721 21902 21904 1
21722 21902 21921 1
21723 21902 21903 1
21724 21902 21910 1
21725 21903 21906 1
21726 21903 21907 1
21727 21903 21905 1
21728 21907 21908 1
21729 21907 21909 1
21730 21910 21911 1
21731 21910 21913 1
21732 21910 21912 1
21733 21914 21916 1
21734 21914 21922 1
21735 21914 21933 1
21736 21914 21915 1
21737 21915 21917 1
21738 21915 21918 1
21739 21915 21919 1
21740 21919 21921 1
21741 21919 21920 1
21742 21922 21924 1
21743 21922 21923 1
21744 21922 21925 1
21745 21926 21928 1
21746 21926 21945 1
21747 21926 21927 1
21748 21926 21934 1
21749 21927 21929 1
21750 21927 21930 1
21751 21927 21931 1
21752 21931 21932 1
21753 21931 21933 1
21754 21934 21937 1
21755 21934 21935 1
21756 21934 21936 1
21757 21938 21946 1
21758 21938 21940 1
21759 21938 21957 1
21760 21938 21939 1
21761 21939 21941 1
21762 21939 21943 1
21763 21939 21942 1
21764 21943 21945 1
21765 21943 21944 1
21766 21946 21949 1
21767 21946 21948 1
21768 21946 21947 1
21769 21950 21952 1
21770 21950 21958 1
21771 21950 21951 1
21772 21950 21969 1
21773 21951 21954 1
21774 21951 21953 1
21775 21951 21955 1
21776 21955 21956 1
21777 21955 21957 1
21778 21958 21961 1
21779 21958 21960 1
21780 21958 21959 1
21781 21962 21964 1
21782 21962 21963 1
21783 21962 21981 1
21784 21962 21970 1
21785 21963 21965 1
21786 21963 21967 1
21787 21963 21966 1
21788 21967 21969 1
21789 21967 21968 1
21790 21970 21972 1
21791 21970 21973 1
21792 21970 21971 1
21793 21974 21976 1
21794 21974 21975 1
21795 21974 21993 1
21796 21974 21982 1
21797 21975 21977 1
21798 21975 21979 1
21799 21975 21978 1
21800 21979 21980 1
21801 21979 21981 1
21802 21982 21985 1
21803 21982 21984 1
21804 21982 21983 1
21805 21986 21987 1
21806 21986 21988 1
21807 21986 22005 1
21808 21986 21994 1
21809 21987 21989 1
21810 21987 21991 1
21811 21987 21990 1
21812 21991 21993 1
21813 21991 21992 1
21814 21994 21995 1
21815 21994 21996 1
21816 21994 21997 1
21817 21998 22000 1
21818 21998 22017 1
21819 21998 21999 1
21820 21998 22006 1
21821 21999 22003 1
21822 21999 22001 1
21823 21999 22002 1
21824 22003 22004 1
21825 22003 22005 1
21826 22006 22007 1
21827 22006 22008 1
21828 22006 22009 1
21829 22010 22012 1
21830 22010 22029 1
21831 22010 22018 1
21832 22010 22011 1
21833 22011 22013 1
21834 22011 22014 1
21835 22011 22015 1
21836 22015 22016 1
21837 22015 22017 1
21838 22018 22020 1
21839 22018 22019 1
21840 22018 22021 1
21841 22022 22024 1
21842 22022 22023 1
21843 22022 22041 1
21844 22022 22030 1
21845 22023 22027 1
21846 22023 22025 1
21847 22023 22026 1
21848 22027 22028 1
21849 22027 22029 1
21850 22030 22031 1
21851 22030 22032 1
21852 22030 22033 1
21853 22034 22042 1
21854 22034 22053 1
21855 22034 22035 1
21856 22034 22036 1
21857 22035 22038 1
21858 22035 22037 1
21859 22035 22039 1
21860 22039 22040 1
21861 22039 22041 1
21862 22042 22045 1
21863 22042 22044 1
21864 22042 22043 1
21865 22046 22065 1
21866 22046 22047 1
21867 22046 22048 1
21868 22046 22054 1
21869 22047 22051 1
21870 22047 22049 1
21871 22047 22050 1
21872 22051 22052 1
21873 22051 22053 1
21874 22054 22057 1
21875 22054 22055 1
21876 22054 22056 1
21877 22058 22066 1
21878 22058 22059 1
21879 22058 22060 1
21880 22059 22061 1
21881 22059 22062 1
21882 22059 22063 1
21883 22063 22064 1
21884 22063 22065 1
21885 22066 22069 1
21886 22066 22067 1
21887 22066 22068 1
21888 22070 22071 1
21889 22071 22072 1
21890 22071 22079 1
21891 22071 22073 1
21892 22072 22076 1
21893 22072 22074 1
21894 22072 22075 1
21895 22076 22077 1
21896 22076 22078 1
21897 22079 22080 1
21898 22079 22082 1
21899 22079 22081 1
21900 22083 22084 1
21901 22083 22085 1
21902 22083 22092 1
21903 22084 22086 1
21904 22084 22087 1
21905 22084 22088 1
21906 22088 22089 1
21907 22088 22090 1
21908 22090 22091 1
21909 22092 22093 1
21910 22092 22094 1
21911 22092 22095 1
21912 22096 22097 1
21913 22096 22098 1
21914 22096 22115 1
21915 22096 22104 1
21916 22097 22099 1
21917 22097 22100 1
21918 22097 22101 1
21919 22101 22103 1
21920 22101 22102 1
21921 22104 22105 1
21922 22104 22106 1
21923 22104 22107 1
21924 22108 22110 1
21925 22108 22109 1
21926 22108 22116 1
21927 22108 22127 1
21928 22109 22111 1
21929 22109 22112 1
21930 22109 22113 1
21931 22113 22114 1
21932 22113 22115 1
21933 22116 22119 1
21934 22116 22118 1
21935 22116 22117 1
21936 22120 22121 1
21937 22120 22122 1
21938 22120 22128 1
21939 22120 22139 1
21940 22121 22123 1
21941 22121 22124 1
21942 22121 22125 1
21943 22125 22127 1
21944 22125 22126 1
21945 22128 22129 1
21946 22128 22131 1
21947 22128 22130 1
21948 22132 22134 1
21949 22132 22140 1
21950 22132 22133 1
21951 22132 22151 1
21952 22133 22136 1
21953 22133 22135 1
21954 22133 22137 1
21955 22137 22138 1
21956 22137 22139 1
21957 22140 22141 1
21958 22140 22143 1
21959 22140 22142 1
21960 22144 22146 1
21961 22144 22145 1
21962 22144 22152 1
21963 22144 22163 1
21964 22145 22147 1
21965 22145 22148 1
21966 22145 22149 1
21967 22149 22151 1
21968 22149 22150 1
21969 22152 22155 1
21970 22152 22153 1
21971 22152 22154 1
21972 22156 22158 1
21973 22156 22164 1
21974 22156 22157 1
21975 22156 22175 1
21976 22157 22159 1
21977 22157 22160 1
21978 22157 22161 1
21979 22161 22162 1
21980 22161 22163 1
21981 22164 22166 1
21982 22164 22167 1
21983 22164 22165 1
21984 22168 22170 1
21985 22168 22169 1
21986 22168 22176 1
21987 22168 22187 1
21988 22169 22172 1
21989 22169 22171 1
21990 22169 22173 1
21991 22173 22175 1
21992 22173 22174 1
21993 22176 22177 1
21994 22176 22178 1
21995 22176 22179 1
21996 22180 22188 1
21997 22180 22182 1
21998 22180 22181 1
21999 22180 22199 1
22000 22181 22183 1
22001 22181 22184 1
22002 22181 22185 1
22003 22185 22187 1
22004 22185 22186 1
22005 22188 22191 1
22006 22188 22189 1
22007 22188 22190 1
22008 22192 22200 1
22009 22192 22194 1
22010 22192 22193 1
22011 22192 22211 1
22012 22193 22195 1
22013 22193 22196 1
22014 22193 22197 1
22015 22197 22199 1
22016 22197 22198 1
22017 22200 22202 1
22018 22200 22201 1
22019 22200 22203 1
22020 22204 22206 1
22021 22204 22212 1
22022 22204 22223 1
22023 22204 22205 1
22024 22205 22208 1
22025 22205 22209 1
22026 22205 22207 1
22027 22209 22211 1
22028 22209 22210 1
22029 22212 22213 1
22030 22212 22214 1
22031 22212 22215 1
22032 22216 22224 1
22033 22216 22218 1
22034 22216 22217 1
22035 22216 22235 1
22036 22217 22220 1
22037 22217 22221 1
22038 22217 22219 1
22039 22221 22223 1
22040 22221 22222 1
22041 22224 22225 1
22042 22224 22226 1
22043 22224 22227 1
22044 22228 22230 1
22045 22228 22236 1
22046 22228 22247 1
22047 22228 22229 1
22048 22229 22233 1
22049 22229 22232 1
22050 22229 22231 1
22051 22233 22235 1
22052 22233 22234 1
22053 22236 22237 1
22054 22236 22238 1
22055 22236 22239 1
22056 22240 22242 1
22057 22240 22248 1
22058 22240 22241 1
22059 22240 22259 1
22060 22241 22243 1
22061 22241 22244 1
22062 22241 22245 1
22063 22245 22247 1
22064 22245 22246 1
22065 22248 22250 1
22066 22248 22251 1
22067 22248 22249 1
22068 22252 22253 1
22069 22252 22271 1
22070 22252 22260 1
22071 22252 22254 1
22072 22253 22255 1
22073 22253 22256 1
22074 22253 22257 1
22075 22257 22259 1
22076 22257 22258 1
22077 22260 22261 1
22078 22260 22262 1
22079 22260 22263 1
22080 22264 22265 1
22081 22264 22283 1
22082 22264 22266 1
22083 22264 22272 1
22084 22265 22267 1
22085 22265 22269 1
22086 22265 22268 1
22087 22269 22271 1
22088 22269 22270 1
22089 22272 22273 1
22090 22272 22274 1
22091 22272 22275 1
22092 22276 22278 1
22093 22276 22277 1
22094 22276 22295 1
22095 22276 22284 1
22096 22277 22279 1
22097 22277 22281 1
22098 22277 22280 1
22099 22281 22282 1
22100 22281 22283 1
22101 22284 22285 1
22102 22284 22287 1
22103 22284 22286 1
22104 22288 22290 1
22105 22288 22289 1
22106 22288 22307 1
22107 22288 22296 1
22108 22289 22291 1
22109 22289 22292 1
22110 22289 22293 1
22111 22293 22294 1
22112 22293 22295 1
22113 22296 22299 1
22114 22296 22298 1
22115 22296 22297 1
22116 22300 22302 1
22117 22300 22319 1
22118 22300 22308 1
22119 22300 22301 1
22120 22301 22304 1
22121 22301 22305 1
22122 22301 22303 1
22123 22305 22306 1
22124 22305 22307 1
22125 22308 22309 1
22126 22308 22311 1
22127 22308 22310 1
22128 22312 22314 1
22129 22312 22331 1
22130 22312 22313 1
22131 22312 22320 1
22132 22313 22316 1
22133 22313 22317 1
22134 22313 22315 1
22135 22317 22318 1
22136 22317 22319 1
22137 22320 22321 1
22138 22320 22323 1
22139 22320 22322 1
22140 22324 22326 1
22141 22324 22343 1
22142 22324 22332 1
22143 22324 22325 1
22144 22325 22327 1
22145 22325 22328 1
22146 22325 22329 1
22147 22329 22330 1
22148 22329 22331 1
22149 22332 22334 1
22150 22332 22335 1
22151 22332 22333 1
22152 22336 22338 1
22153 22336 22355 1
22154 22336 22337 1
22155 22336 22344 1
22156 22337 22339 1
22157 22337 22340 1
22158 22337 22341 1
22159 22341 22342 1
22160 22341 22343 1
22161 22344 22347 1
22162 22344 22345 1
22163 22344 22346 1
22164 22348 22356 1
22165 22348 22350 1
22166 22348 22367 1
22167 22348 22349 1
22168 22349 22352 1
22169 22349 22351 1
22170 22349 22353 1
22171 22353 22354 1
22172 22353 22355 1
22173 22356 22359 1
22174 22356 22357 1
22175 22356 22358 1
22176 22360 22368 1
22177 22360 22379 1
22178 22360 22362 1
22179 22360 22361 1
22180 22361 22365 1
22181 22361 22364 1
22182 22361 22363 1
22183 22365 22366 1
22184 22365 22367 1
22185 22368 22371 1
22186 22368 22369 1
22187 22368 22370 1
22188 22372 22380 1
22189 22372 22391 1
22190 22372 22374 1
22191 22372 22373 1
22192 22373 22375 1
22193 22373 22376 1
22194 22373 22377 1
22195 22377 22378 1
22196 22377 22379 1
22197 22380 22382 1
22198 22380 22383 1
22199 22380 22381 1
22200 22384 22386 1
22201 22384 22385 1
22202 22384 22392 1
22203 22384 22403 1
22204 22385 22388 1
22205 22385 22389 1
22206 22385 22387 1
22207 22389 22390 1
22208 22389 22391 1
22209 22392 22393 1
22210 22392 22394 1
22211 22392 22395 1
22212 22396 22398 1
22213 22396 22397 1
22214 22396 22415 1
22215 22396 22404 1
22216 22397 22400 1
22217 22397 22401 1
22218 22397 22399 1
22219 22401 22402 1
22220 22401 22403 1
22221 22404 22406 1
22222 22404 22405 1
22223 22404 22407 1
22224 22408 22409 1
22225 22408 22410 1
22226 22408 22416 1
22227 22408 22427 1
22228 22409 22411 1
22229 22409 22412 1
22230 22409 22413 1
22231 22413 22415 1
22232 22413 22414 1
22233 22416 22417 1
22234 22416 22418 1
22235 22416 22419 1
22236 22420 22422 1
22237 22420 22421 1
22238 22420 22428 1
22239 22421 22423 1
22240 22421 22424 1
22241 22421 22425 1
22242 22425 22427 1
22243 22425 22426 1
22244 22428 22430 1
22245 22428 22429 1
22246 22428 22431 1
22247 22432 22433 1
22248 22433 22434 1
22249 22433 22435 1
22250 22433 22441 1
22251 22434 22436 1
22252 22434 22437 1
22253 22434 22438 1
22254 22438 22439 1
22255 22438 22440 1
22256 22441 22442 1
22257 22441 22443 1
22258 22441 22444 1
22259 22445 22454 1
22260 22445 22447 1
22261 22445 22446 1
22262 22446 22448 1
22263 22446 22449 1
22264 22446 22450 1
22265 22450 22451 1
22266 22450 22452 1
22267 22452 22453 1
22268 22454 22455 1
22269 22454 22457 1
22270 22454 22456 1
22271 22458 22477 1
22272 22458 22466 1
22273 22458 22459 1
22274 22458 22460 1
22275 22459 22461 1
22276 22459 22462 1
22277 22459 22463 1
22278 22463 22464 1
22279 22463 22465 1
22280 22466 22467 1
22281 22466 22468 1
22282 22466 22469 1
22283 22470 22489 1
22284 22470 22478 1
22285 22470 22472 1
22286 22470 22471 1
22287 22471 22473 1
22288 22471 22474 1
22289 22471 22475 1
22290 22475 22476 1
22291 22475 22477 1
22292 22478 22480 1
22293 22478 22479 1
22294 22478 22481 1
22295 22482 22483 1
22296 22482 22501 1
22297 22482 22490 1
22298 22482 22484 1
22299 22483 22487 1
22300 22483 22486 1
22301 22483 22485 1
22302 22487 22488 1
22303 22487 22489 1
22304 22490 22491 1
22305 22490 22492 1
22306 22490 22493 1
22307 22494 22513 1
22308 22494 22502 1
22309 22494 22495 1
22310 22494 22496 1
22311 22495 22499 1
22312 22495 22497 1
22313 22495 22498 1
22314 22499 22501 1
22315 22499 22500 1
22316 22502 22503 1
22317 22502 22504 1
22318 22502 22505 1
22319 22506 22525 1
22320 22506 22507 1
22321 22506 22514 1
22322 22506 22508 1
22323 22507 22511 1
22324 22507 22510 1
22325 22507 22509 1
22326 22511 22512 1
22327 22511 22513 1
22328 22514 22516 1
22329 22514 22515 1
22330 22514 22517 1
22331 22518 22537 1
22332 22518 22526 1
22333 22518 22519 1
22334 22518 22520 1
22335 22519 22522 1
22336 22519 22523 1
22337 22519 22521 1
22338 22523 22525 1
22339 22523 22524 1
22340 22526 22528 1
22341 22526 22529 1
22342 22526 22527 1
22343 22530 22549 1
22344 22530 22531 1
22345 22530 22538 1
22346 22530 22532 1
22347 22531 22534 1
22348 22531 22535 1
22349 22531 22533 1
22350 22535 22537 1
22351 22535 22536 1
22352 22538 22540 1
22353 22538 22539 1
22354 22538 22541 1
22355 22542 22561 1
22356 22542 22543 1
22357 22542 22550 1
22358 22542 22544 1
22359 22543 22546 1
22360 22543 22545 1
22361 22543 22547 1
22362 22547 22548 1
22363 22547 22549 1
22364 22550 22553 1
22365 22550 22551 1
22366 22550 22552 1
22367 22554 22573 1
22368 22554 22555 1
22369 22554 22556 1
22370 22554 22562 1
22371 22555 22557 1
22372 22555 22558 1
22373 22555 22559 1
22374 22559 22561 1
22375 22559 22560 1
22376 22562 22565 1
22377 22562 22563 1
22378 22562 22564 1
22379 22566 22567 1
22380 22566 22585 1
22381 22566 22574 1
22382 22566 22568 1
22383 22567 22569 1
22384 22567 22570 1
22385 22567 22571 1
22386 22571 22572 1
22387 22571 22573 1
22388 22574 22575 1
22389 22574 22577 1
22390 22574 22576 1
22391 22578 22597 1
22392 22578 22579 1
22393 22578 22580 1
22394 22578 22586 1
22395 22579 22582 1
22396 22579 22581 1
22397 22579 22583 1
22398 22583 22585 1
22399 22583 22584 1
22400 22586 22587 1
22401 22586 22589 1
22402 22586 22588 1
22403 22590 22592 1
22404 22590 22591 1
22405 22590 22609 1
22406 22590 22598 1
22407 22591 22593 1
22408 22591 22595 1
22409 22591 22594 1
22410 22595 22596 1
22411 22595 22597 1
22412 22598 22599 1
22413 22598 22601 1
22414 22598 22600 1
22415 22602 22604 1
22416 22602 22603 1
22417 22602 22621 1
22418 22602 22610 1
22419 22603 22605 1
22420 22603 22606 1
22421 22603 22607 1
22422 22607 22609 1
22423 22607 22608 1
22424 22610 22613 1
22425 22610 22611 1
22426 22610 22612 1
22427 22614 22616 1
22428 22614 22633 1
22429 22614 22622 1
22430 22614 22615 1
22431 22615 22618 1
22432 22615 22619 1
22433 22615 22617 1
22434 22619 22621 1
22435 22619 22620 1
22436 22622 22623 1
22437 22622 22625 1
22438 22622 22624 1
22439 22626 22628 1
22440 22626 22627 1
22441 22626 22645 1
22442 22626 22634 1
22443 22627 22630 1
22444 22627 22631 1
22445 22627 22629 1
22446 22631 22633 1
22447 22631 22632 1
22448 22634 22635 1
22449 22634 22637 1
22450 22634 22636 1
22451 22638 22640 1
22452 22638 22646 1
22453 22638 22657 1
22454 22638 22639 1
22455 22639 22641 1
22456 22639 22642 1
22457 22639 22643 1
22458 22643 22645 1
22459 22643 22644 1
22460 22646 22647 1
22461 22646 22649 1
22462 22646 22648 1
22463 22650 22652 1
22464 22650 22658 1
22465 22650 22651 1
22466 22650 22669 1
22467 22651 22653 1
22468 22651 22654 1
22469 22651 22655 1
22470 22655 22656 1
22471 22655 22657 1
22472 22658 22660 1
22473 22658 22661 1
22474 22658 22659 1
22475 22662 22670 1
22476 22662 22664 1
22477 22662 22681 1
22478 22662 22663 1
22479 22663 22666 1
22480 22663 22665 1
22481 22663 22667 1
22482 22667 22669 1
22483 22667 22668 1
22484 22670 22673 1
22485 22670 22672 1
22486 22670 22671 1
22487 22674 22675 1
22488 22674 22676 1
22489 22674 22693 1
22490 22674 22682 1
22491 22675 22677 1
22492 22675 22679 1
22493 22675 22678 1
22494 22679 22680 1
22495 22679 22681 1
22496 22682 22685 1
22497 22682 22684 1
22498 22682 22683 1
22499 22686 22688 1
22500 22686 22687 1
22501 22686 22705 1
22502 22686 22694 1
22503 22687 22689 1
22504 22687 22691 1
22505 22687 22690 1
22506 22691 22693 1
22507 22691 22692 1
22508 22694 22696 1
22509 22694 22697 1
22510 22694 22695 1
22511 22698 22700 1
22512 22698 22699 1
22513 22698 22717 1
22514 22698 22706 1
22515 22699 22701 1
22516 22699 22703 1
22517 22699 22702 1
22518 22703 22704 1
22519 22703 22705 1
22520 22706 22709 1
22521 22706 22707 1
22522 22706 22708 1
22523 22710 22711 1
22524 22710 22712 1
22525 22710 22729 1
22526 22710 22718 1
22527 22711 22713 1
22528 22711 22715 1
22529 22711 22714 1
22530 22715 22717 1
22531 22715 22716 1
22532 22718 22719 1
22533 22718 22720 1
22534 22718 22721 1
22535 22722 22724 1
22536 22722 22741 1
22537 22722 22723 1
22538 22722 22730 1
22539 22723 22727 1
22540 22723 22725 1
22541 22723 22726 1
22542 22727 22728 1
22543 22727 22729 1
22544 22730 22731 1
22545 22730 22732 1
22546 22730 22733 1
22547 22734 22736 1
22548 22734 22735 1
22549 22734 22753 1
22550 22734 22742 1
22551 22735 22739 1
22552 22735 22738 1
22553 22735 22737 1
22554 22739 22740 1
22555 22739 22741 1
22556 22742 22744 1
22557 22742 22743 1
22558 22742 22745 1
22559 22746 22748 1
22560 22746 22765 1
22561 22746 22747 1
22562 22746 22754 1
22563 22747 22750 1
22564 22747 22749 1
22565 22747 22751 1
22566 22751 22752 1
22567 22751 22753 1
22568 22754 22755 1
22569 22754 22756 1
22570 22754 22757 1
22571 22758 22766 1
22572 22758 22760 1
22573 22758 22777 1
22574 22758 22759 1
22575 22759 22762 1
22576 22759 22761 1
22577 22759 22763 1
22578 22763 22764 1
22579 22763 22765 1
22580 22766 22769 1
22581 22766 22768 1
22582 22766 22767 1
22583 22770 22789 1
22584 22770 22778 1
22585 22770 22772 1
22586 22770 22771 1
22587 22771 22773 1
22588 22771 22774 1
22589 22771 22775 1
22590 22775 22776 1
22591 22775 22777 1
22592 22778 22781 1
22593 22778 22779 1
22594 22778 22780 1
22595 22782 22790 1
22596 22782 22783 1
22597 22782 22784 1
22598 22783 22785 1
22599 22783 22786 1
22600 22783 22787 1
22601 22787 22788 1
22602 22787 22789 1
22603 22790 22793 1
22604 22790 22791 1
22605 22790 22792 1
22606 22794 22795 1
22607 22795 22803 1
22608 22795 22796 1
22609 22795 22797 1
22610 22796 22798 1
22611 22796 22799 1
22612 22796 22800 1
22613 22800 22801 1
22614 22800 22802 1
22615 22803 22804 1
22616 22803 22805 1
22617 22803 22806 1
22618 22807 22808 1
22619 22807 22809 1
22620 22807 22816 1
22621 22808 22810 1
22622 22808 22811 1
22623 22808 22812 1
22624 22812 22813 1
22625 22812 22814 1
22626 22814 22815 1
22627 22816 22817 1
22628 22816 22818 1
22629 22816 22819 1
22630 22820 22821 1
22631 22820 22822 1
22632 22820 22839 1
22633 22820 22828 1
22634 22821 22823 1
22635 22821 22824 1
22636 22821 22825 1
22637 22825 22827 1
22638 22825 22826 1
22639 22828 22829 1
22640 22828 22830 1
22641 22828 22831 1
22642 22832 22834 1
22643 22832 22833 1
22644 22832 22840 1
22645 22832 22851 1
22646 22833 22835 1
22647 22833 22836 1
22648 22833 22837 1
22649 22837 22838 1
22650 22837 22839 1
22651 22840 22843 1
22652 22840 22841 1
22653 22840 22842 1
22654 22844 22845 1
22655 22844 22846 1
22656 22844 22852 1
22657 22844 22863 1
22658 22845 22847 1
22659 22845 22848 1
22660 22845 22849 1
22661 22849 22851 1
22662 22849 22850 1
22663 22852 22853 1
22664 22852 22855 1
22665 22852 22854 1
22666 22856 22858 1
22667 22856 22864 1
22668 22856 22857 1
22669 22856 22875 1
22670 22857 22860 1
22671 22857 22859 1
22672 22857 22861 1
22673 22861 22862 1
22674 22861 22863 1
22675 22864 22865 1
22676 22864 22867 1
22677 22864 22866 1
22678 22868 22870 1
22679 22868 22869 1
22680 22868 22876 1
22681 22868 22887 1
22682 22869 22871 1
22683 22869 22872 1
22684 22869 22873 1
22685 22873 22875 1
22686 22873 22874 1
22687 22876 22879 1
22688 22876 22877 1
22689 22876 22878 1
22690 22880 22882 1
22691 22880 22888 1
22692 22880 22881 1
22693 22880 22899 1
22694 22881 22883 1
22695 22881 22884 1
22696 22881 22885 1
22697 22885 22886 1
22698 22885 22887 1
22699 22888 22890 1
22700 22888 22891 1
22701 22888 22889 1
22702 22892 22894 1
22703 22892 22893 1
22704 22892 22900 1
22705 22892 22911 1
22706 22893 22896 1
22707 22893 22895 1
22708 22893 22897 1
22709 22897 22899 1
22710 22897 22898 1
22711 22900 22901 1
22712 22900 22902 1
22713 22900 22903 1
22714 22904 22912 1
22715 22904 22906 1
22716 22904 22905 1
22717 22904 22923 1
22718 22905 22907 1
22719 22905 22908 1
22720 22905 22909 1
22721 22909 22911 1
22722 22909 22910 1
22723 22912 22913 1
22724 22912 22914 1
22725 22912 22915 1
22726 22916 22924 1
22727 22916 22918 1
22728 22916 22917 1
22729 22916 22935 1
22730 22917 22920 1
22731 22917 22921 1
22732 22917 22919 1
22733 22921 22923 1
22734 22921 22922 1
22735 22924 22927 1
22736 22924 22926 1
22737 22924 22925 1
22738 22928 22930 1
22739 22928 22936 1
22740 22928 22947 1
22741 22928 22929 1
22742 22929 22932 1
22743 22929 22933 1
22744 22929 22931 1
22745 22933 22935 1
22746 22933 22934 1
22747 22936 22937 1
22748 22936 22938 1
22749 22936 22939 1
22750 22940 22948 1
22751 22940 22942 1
22752 22940 22941 1
22753 22940 22959 1
22754 22941 22944 1
22755 22941 22945 1
22756 22941 22943 1
22757 22945 22947 1
22758 22945 22946 1
22759 22948 22949 1
22760 22948 22950 1
22761 22948 22951 1
22762 22952 22954 1
22763 22952 22960 1
22764 22952 22971 1
22765 22952 22953 1
22766 22953 22957 1
22767 22953 22956 1
22768 22953 22955 1
22769 22957 22959 1
22770 22957 22958 1
22771 22960 22961 1
22772 22960 22962 1
22773 22960 22963 1
22774 22964 22965 1
22775 22964 22983 1
22776 22964 22966 1
22777 22964 22972 1
22778 22965 22967 1
22779 22965 22968 1
22780 22965 22969 1
22781 22969 22971 1
22782 22969 22970 1
22783 22972 22974 1
22784 22972 22975 1
22785 22972 22973 1
22786 22976 22978 1
22787 22976 22984 1
22788 22976 22995 1
22789 22976 22977 1
22790 22977 22979 1
22791 22977 22980 1
22792 22977 22981 1
22793 22981 22983 1
22794 22981 22982 1
22795 22984 22985 1
22796 22984 22986 1
22797 22984 22987 1
22798 22988 22989 1
22799 22988 22990 1
22800 22988 23007 1
22801 22988 22996 1
22802 22989 22991 1
22803 22989 22992 1
22804 22989 22993 1
22805 22993 22994 1
22806 22993 22995 1
22807 22996 22997 1
22808 22996 22998 1
22809 22996 22999 1
22810 23000 23002 1
22811 23000 23001 1
22812 23000 23019 1
22813 23000 23008 1
22814 23001 23003 1
22815 23001 23005 1
22816 23001 23004 1
22817 23005 23007 1
22818 23005 23006 1
22819 23008 23009 1
22820 23008 23011 1
22821 23008 23010 1
22822 23012 23014 1
22823 23012 23013 1
22824 23012 23031 1
22825 23012 23020 1
22826 23013 23015 1
22827 23013 23016 1
22828 23013 23017 1
22829 23017 23018 1
22830 23017 23019 1
22831 23020 23023 1
22832 23020 23022 1
22833 23020 23021 1
22834 23024 23025 1
22835 23024 23026 1
22836 23024 23043 1
22837 23024 23032 1
22838 23025 23027 1
22839 23025 23029 1
22840 23025 23028 1
22841 23029 23031 1
22842 23029 23030 1
22843 23032 23033 1
22844 23032 23035 1
22845 23032 23034 1
22846 23036 23038 1
22847 23036 23055 1
22848 23036 23037 1
22849 23036 23044 1
22850 23037 23040 1
22851 23037 23039 1
22852 23037 23041 1
22853 23041 23042 1
22854 23041 23043 1
22855 23044 23045 1
22856 23044 23047 1
22857 23044 23046 1
22858 23048 23050 1
22859 23048 23067 1
22860 23048 23056 1
22861 23048 23049 1
22862 23049 23051 1
22863 23049 23052 1
22864 23049 23053 1
22865 23053 23054 1
22866 23053 23055 1
22867 23056 23058 1
22868 23056 23059 1
22869 23056 23057 1
22870 23060 23062 1
22871 23060 23068 1
22872 23060 23079 1
22873 23060 23061 1
22874 23061 23063 1
22875 23061 23064 1
22876 23061 23065 1
22877 23065 23066 1
22878 23065 23067 1
22879 23068 23071 1
22880 23068 23069 1
22881 23068 23070 1
22882 23072 23074 1
22883 23072 23091 1
22884 23072 23080 1
22885 23072 23073 1
22886 23073 23076 1
22887 23073 23075 1
22888 23073 23077 1
22889 23077 23078 1
22890 23077 23079 1
22891 23080 23081 1
22892 23080 23082 1
22893 23080 23083 1
22894 23084 23092 1
22895 23084 23103 1
22896 23084 23086 1
22897 23084 23085 1
22898 23085 23089 1
22899 23085 23088 1
22900 23085 23087 1
22901 23089 23090 1
22902 23089 23091 1
22903 23092 23094 1
22904 23092 23095 1
22905 23092 23093 1
22906 23096 23104 1
22907 23096 23115 1
22908 23096 23098 1
22909 23096 23097 1
22910 23097 23099 1
22911 23097 23100 1
22912 23097 23101 1
22913 23101 23103 1
22914 23101 23102 1
22915 23104 23107 1
22916 23104 23106 1
22917 23104 23105 1
22918 23108 23110 1
22919 23108 23109 1
22920 23108 23116 1
22921 23108 23127 1
22922 23109 23112 1
22923 23109 23113 1
22924 23109 23111 1
22925 23113 23114 1
22926 23113 23115 1
22927 23116 23117 1
22928 23116 23118 1
22929 23116 23119 1
22930 23120 23122 1
22931 23120 23121 1
22932 23120 23139 1
22933 23120 23128 1
22934 23121 23124 1
22935 23121 23123 1
22936 23121 23125 1
22937 23125 23127 1
22938 23125 23126 1
22939 23128 23130 1
22940 23128 23129 1
22941 23128 23131 1
22942 23132 23133 1
22943 23132 23134 1
22944 23132 23140 1
22945 23132 23151 1
22946 23133 23135 1
22947 23133 23137 1
22948 23133 23136 1
22949 23137 23138 1
22950 23137 23139 1
22951 23140 23141 1
22952 23140 23142 1
22953 23140 23143 1
22954 23144 23146 1
22955 23144 23145 1
22956 23144 23152 1
22957 23145 23147 1
22958 23145 23148 1
22959 23145 23149 1
22960 23149 23151 1
22961 23149 23150 1
22962 23152 23154 1
22963 23152 23153 1
22964 23152 23155 1
22965 23156 23157 1
22966 23157 23158 1
22967 23157 23159 1
22968 23157 23165 1
22969 23158 23160 1
22970 23158 23161 1
22971 23158 23162 1
22972 23162 23163 1
22973 23162 23164 1
22974 23165 23166 1
22975 23165 23167 1
22976 23165 23168 1
22977 1 21 1
22978 338 358 1
22979 363 383 1
22980 700 720 1
22981 725 745 1
22982 1062 1082 1
22983 1087 1107 1
22984 1424 1444 1
22985 1449 1469 1
22986 1786 1806 1
22987 1811 1831 1
22988 2148 2168 1
22989 2173 2193 1
22990 2510 2530 1
22991 2535 2555 1
22992 2872 2892 1
22993 2897 2917 1
22994 3234 3254 1
22995 3259 3279 1
22996 3596 3616 1
22997 3621 3641 1
22998 3958 3978 1
22999 3983 4003 1
23000 4320 4340 1
23001 4345 4365 1
23002 4682 4702 1
23003 4707 4727 1
23004 5044 5064 1
23005 5069 5089 1
23006 5406 5426 1
23007 5431 5451 1
23008 5768 5788 1
23009 5793 5813 1
23010 6130 6150 1
23011 6155 6175 1
23012 6492 6512 1
23013 6517 6537 1
23014 6854 6874 1
23015 6879 6899 1
23016 7216 7236 1
23017 7241 7261 1
23018 7578 7598 1
23019 7603 7623 1
23020 7940 7960 1
23021 7965 7985 1
23022 8302 8322 1
23023 8327 8347 1
23024 8664 8684 1
23025 8689 8709 1
23026 9026 9046 1
23027 9051 9071 1
23028 9388 9408 1
23029 9413 9433 1
23030 9750 9770 1
23031 9775 9795 1
23032 10112 10132 1
23033 10137 10157 1
23034 10474 10494 1
23035 10499 10519 1
23036 10836 10856 1
23037 10861 10881 1
23038 11198 11218 1
23039 11223 11243 1
23040 11560 11580 1
23041 11585 11605 1
23042 11922 11942 1
23043 11947 11967 1
23044 12284 12304 1
23045 12309 12329 1
23046 12646 12666 1
23047 12671 12691 1
23048 13008 13028 1
23049 13033 13053 1
23050 13370 13390 1
23051 13395 13415 1
23052 13732 13752 1
23053 13757 13777 1
23054 14094 14114 1
23055 14119 14139 1
23056 14456 14476 1
23057 14481 14501 1
23058 14818 14838 1
23059 14843 14863 1
23060 15180 15200 1
23061 15205 15225 1
23062 15542 15562 1
23063 15567 15587 1
23064 15904 15924 1
23065 15929 15949 1
23066 16266 16286 1
23067 16291 16311 1
23068 16628 16648 1
23069 16653 16673 1
23070 16990 17010 1
23071 17015 17035 1
23072 17352 17372 1
23073 17377 17397 1
23074 17714 17734 1
23075 17739 17759 1
23076 18076 18096 1
23077 18101 18121 1
23078 18438 18458 1
23079 18463 18483 1
23080 18800 18820 1
23081 18825 18845 1
23082 19162 19182 1
23083 19187 19207 1
23084 19524 19544 1
23085 19549 19569 1
23086 19886 19906 1
23087 19911 19931 1
23088 20248 20268 1
23089 20273 20293 1
23090 20610 20630 1
23091 20635 20655 1
23092 20972 20992 1
23093 20997 21017 1
23094 21334 21354 1
23095 21359 21379 1
23096 21696 21716 1
23097 21721 21741 1
23098 22058 22078 1
23099 22083 22103 1
23100 22420 22440 1
23101 22445 22465 1
23102 22782 22802 1
23103 22807 22827 1
23104 23144 23164 1
@<TRIPOS>SUBSTRUCTURE
1 C41 1 **** **** X
2 C42 14 **** **** X
3 C43 350 **** **** X
4 C44 363 **** **** X
5 C45 376 **** **** X
6 C46 712 **** **** X
7 C47 725 **** **** X
8 C48 738 **** **** X
9 C49 1074 **** **** X
10 C410 1087 **** **** X
11 C411 1100 **** **** X
12 C412 1436 **** **** X
13 C413 1449 **** **** X
14 C414 1462 **** **** X
15 C415 1798 **** **** X
16 C416 1811 **** **** X
17 C417 1824 **** **** X
18 C418 2160 **** **** X
19 C419 2173 **** **** X
20 C420 2186 **** **** X
21 C421 2522 **** **** X
22 C422 2535 **** **** X
23 C423 2548 **** **** X
24 C424 2884 **** **** X
25 C425 2897 **** **** X
26 C426 2910 **** **** X
27 C427 3246 **** **** X
28 C428 3259 **** **** X
29 C429 3272 **** **** X
30 C430 3608 **** **** X
31 C431 3621 **** **** X
32 C432 3634 **** **** X
33 C433 3970 **** **** X
34 C434 3983 **** **** X
35 C435 3996 **** **** X
36 C436 4332 **** **** X
37 C437 4345 **** **** X
38 C438 4358 **** **** X
39 C439 4694 **** **** X
40 C440 4707 **** **** X
41 C441 4720 **** **** X
42 C442 5056 **** **** X
43 C443 5069 **** **** X
44 C444 5082 **** **** X
45 C445 5418 **** **** X
46 C446 5431 **** **** X
47 C447 5444 **** **** X
48 C448 5780 **** **** X
49 C449 5793 **** **** X
50 C450 5806 **** **** X
51 C451 6142 **** **** X
52 C452 6155 **** **** X
53 C453 6168 **** **** X
54 C454 6504 **** **** X
55 C455 6517 **** **** X
56 C456 6530 **** **** X
57 C457 6866 **** **** X
58 C458 6879 **** **** X
59 C459 6892 **** **** X
60 C460 7228 **** **** X
61 C461 7241 **** **** X
62 C462 7254 **** **** X
63 C463 7590 **** **** X
64 C464 7603 **** **** X
65 C465 7616 **** **** X
66 C466 7952 **** **** X
67 C467 7965 **** **** X
68 C468 7978 **** **** X
69 C469 8314 **** **** X
70 C470 8327 **** **** X
71 C471 8340 **** **** X
72 C472 8676 **** **** X
73 C473 8689 **** **** X
74 C474 8702 **** **** X
75 C475 9038 **** **** X
76 C476 9051 **** **** X
77 C477 9064 **** **** X
78 C478 9400 **** **** X
79 C479 9413 **** **** X
80 C480 9426 **** **** X
81 C481 9762 **** **** X
82 C482 9775 **** **** X
83 C483 9788 **** **** X
84 C484 10124 **** **** X
85 C485 10137 **** **** X
86 C486 10150 **** **** X
87 C487 10486 **** **** X
88 C488 10499 **** **** X
89 C489 10512 **** **** X
90 C490 10848 **** **** X
91 C491 10861 **** **** X
92 C492 10874 **** **** X
93 C493 11210 **** **** X
94 C494 11223 **** **** X
95 C495 11236 **** **** X
96 C496 11572 **** **** X
97 C497 11585 **** **** X
98 C498 11598 **** **** X
99 C499 11934 **** **** X
100 C4100 11947 **** **** X
101 C4101 11960 **** **** X
102 C4102 12296 **** **** X
103 C4103 12309 **** **** X
104 C4104 12322 **** **** X
105 C4105 12658 **** **** X
106 C4106 12671 **** **** X
107 C4107 12684 **** **** X
108 C4108 13020 **** **** X
109 C4109 13033 **** **** X
110 C4110 13046 **** **** X
111 C4111 13382 **** **** X
112 C4112 13395 **** **** X
113 C4113 13408 **** **** X
114 C4114 13744 **** **** X
115 C4115 13757 **** **** X
116 C4116 13770 **** **** X
117 C4117 14106 **** **** X
118 C4118 14119 **** **** X
119 C4119 14132 **** **** X
120 C4120 14468 **** **** X
121 C4121 14481 **** **** X
122 C4122 14494 **** **** X
123 C4123 14830 **** **** X
124 C4124 14843 **** **** X
125 C4125 14856 **** **** X
126 C4126 15192 **** **** X
127 C4127 15205 **** **** X
128 C4128 15218 **** **** X
129 C4129 15554 **** **** X
130 C4130 15567 **** **** X
131 C4131 15580 **** **** X
132 C4132 15916 **** **** X
133 C4133 15929 **** **** X
134 C4134 15942 **** **** X
135 C4135 16278 **** **** X
136 C4136 16291 **** **** X
137 C4137 16304 **** **** X
138 C4138 16640 **** **** X
139 C4139 16653 **** **** X
140 C4140 16666 **** **** X
141 C4141 17002 **** **** X
142 C4142 17015 **** **** X
143 C4143 17028 **** **** X
144 C4144 17364 **** **** X
145 C4145 17377 **** **** X
146 C4146 17390 **** **** X
147 C4147 17726 **** **** X
148 C4148 17739 **** **** X
149 C4149 17752 **** **** X
150 C4150 18088 **** **** X
151 C4151 18101 **** **** X
152 C4152 18114 **** **** X
153 C4153 18450 **** **** X
154 C4154 18463 **** **** X
155 C4155 18476 **** **** X
156 C4156 18812 **** **** X
157 C4157 18825 **** **** X
158 C4158 18838 **** **** X
159 C4159 19174 **** **** X
160 C4160 19187 **** **** X
161 C4161 19200 **** **** X
162 C4162 19536 **** **** X
163 C4163 19549 **** **** X
164 C4164 19562 **** **** X
165 C4165 19898 **** **** X
166 C4166 19911 **** **** X
167 C4167 19924 **** **** X
168 C4168 20260 **** **** X
169 C4169 20273 **** **** X
170 C4170 20286 **** **** X
171 C4171 20622 **** **** X
172 C4172 20635 **** **** X
173 C4173 20648 **** **** X
174 C4174 20984 **** **** X
175 C4175 20997 **** **** X
176 C4176 21010 **** **** X
177 C4177 21346 **** **** X
178 C4178 21359 **** **** X
179 C4179 21372 **** **** X
180 C4180 21708 **** **** X
181 C4181 21721 **** **** X
182 C4182 21734 **** **** X
183 C4183 22070 **** **** X
184 C4184 22083 **** **** X
185 C4185 22096 **** **** X
186 C4186 22432 **** **** X
187 C4187 22445 **** **** X
188 C4188 22458 **** **** X
189 C4189 22794 **** **** X
190 C4190 22807 **** **** X
191 C4191 22820 **** **** X
192 C4192 23156 **** **** X
